
-------------------------------------------------------------------------
|    ___ _   _ ___                                                      |
|   / __| | | |_  )   Release 5.0.0  "Raven"                            |
|   \__ \ |_| |/ /                                                      |
|   |___/\___//___|   Suite (Computational Fluid Dynamics Code)         |
|                                                                       |
-------------------------------------------------------------------------
| SU2 Original Developers: Dr. Francisco D. Palacios.                   |
|                          Dr. Thomas D. Economon.                      |
-------------------------------------------------------------------------
| SU2 Developers:                                                       |
| - Prof. Juan J. Alonso's group at Stanford University.                |
| - Prof. Piero Colonna's group at Delft University of Technology.      |
| - Prof. Nicolas R. Gauger's group at Kaiserslautern U. of Technology. |
| - Prof. Alberto Guardone's group at Polytechnic University of Milan.  |
| - Prof. Rafael Palacios' group at Imperial College London.            |
| - Prof. Edwin van der Weide's group at the University of Twente.      |
| - Prof. Vincent Terrapon's group at the University of Liege.          |
-------------------------------------------------------------------------
| Copyright (C) 2012-2017 SU2, the open-source CFD code.                |
|                                                                       |
| SU2 is free software; you can redistribute it and/or                  |
| modify it under the terms of the GNU Lesser General Public            |
| License as published by the Free Software Foundation; either          |
| version 2.1 of the License, or (at your option) any later version.    |
|                                                                       |
| SU2 is distributed in the hope that it will be useful,                |
| but WITHOUT ANY WARRANTY; without even the implied warranty of        |
| MERCHANTABILITY or FITNESS FOR A PARTICULAR PURPOSE. See the GNU      |
| Lesser General Public License for more details.                       |
|                                                                       |
| You should have received a copy of the GNU Lesser General Public      |
| License along with SU2. If not, see <http://www.gnu.org/licenses/>.   |
-------------------------------------------------------------------------

------------------------ Physical Case Definition -----------------------
Compressible RANS equations.
Turbulence model: Menter's SST
Mach number: 0.2.
Angle of attack (AoA): 0 deg, and angle of sideslip (AoS): 0 deg.
Reynolds number: 3.19e+06. Reference length 1.
Performing a dynamic mesh simulation: No restart solution, use the values at infinity (freestream).
Dimensional simulation.
The reference area is 1 m^2.
The semi-span length area is 1 m.
The reference length is 1 m.
Surface(s) where the force coefficients are evaluated and 
their reference origin for moment computation: 
   - blade (0, 0, 0).
   - bladerotor (0, 0, 0) m.
Surface(s) where the objective function is evaluated: blade, bladerotor.
Surface(s) plotted in the output file: blade, bladerotor.
Surface(s) to be analyzed in detail: blade, bladerotor, wall1, inlet, outlet, wall2, wall1rotor, wall2rotor, inletrotor, outletrotor.
Surface(s) affected by the design variables: blade.
Input mesh file name: turbine.su2

---------------------- Space Numerical Integration ----------------------
Roe (with entropy fix = 0.01) solver for the flow inviscid terms.
First order integration in space.
Scalar upwind solver for the turbulence model.
First order integration in space.
Average of gradients with correction (viscous flow terms).
Average of gradients with correction (viscous turbulence terms).
Gradient Computation using weighted Least-Squares method.

---------------------- Time Numerical Integration -----------------------
Local time stepping (steady state simulation).
Euler implicit method for the flow equations.
FGMRES is used for solving the linear system.
Using a LU-SGS preconditioning.
Convergence criteria of the linear solver: 0.0001.
Max number of linear iterations: 10.
CFL adaptation. Factor down: 1.3, factor up: 1.2,
                lower limit: 10, upper limit: 40.
Courant-Friedrichs-Lewy number:        5
Euler implicit time integration for the turbulence model.

------------------------- Convergence Criteria --------------------------
Maximum number of iterations: 10000000.
Reduce the density residual 10 orders of magnitude.
The minimum bound for the density residual is 10^(-10).
Start convergence criteria at iteration 1000.

-------------------------- Output Information ---------------------------
Writing a flow solution every 1000 iterations.
Writing the convergence history every 1 iterations.
The output file format is Tecplot ASCII (.dat).
Convergence history file name: history.
Forces breakdown file name: forces_breakdown.dat.
Surface flow coefficients file name: surface_flow.
Flow variables file name: flow.
Restart flow file name: restart_flow.dat.

------------------- Config File Boundary Information --------------------
Periodic boundary marker(s): wall1, wall1rotor, wall2, wall2rotor.
Giles boundary marker(s): inlet, outlet, inletrotor, outletrotor.
MixingPlane boundary marker(s): outlet, inletrotor.
Constant heat flux wall boundary marker(s): blade, bladerotor.

---------------------- Read Grid File Information -----------------------
Reading zone 1 points:
Two dimensional problem.
11265 points and 92 ghost points before parallel partitioning.
Performing linear partitioning of the grid nodes.
Reading zone 1 elements:
14602 interior elements before parallel partitioning.
Calling the partitioning functions.
Building the graph adjacency structure.
Reading zone 1 elements:
Distributing elements across all ranks.
Reading zone 1 markers:
7 surface markers.
21 boundary elements in index 0 (Marker = inlet).
21 boundary elements in index 1 (Marker = outlet).
40 boundary elements in index 2 (Marker = wall1).
40 boundary elements in index 3 (Marker = wall2).
266 boundary elements in index 4 (Marker = blade).
2 periodic transformations.
Calling ParMETIS...
Finished partitioning using ParMETIS (791 edge cuts).
Communicating partition data and creating halo layers.
15392 interior elements including halo cells. 
7123 triangles.
8269 quadrilaterals.
12726 vertices including ghost points. 
Establishing MPI communication patterns.

---------------------- Read Grid File Information -----------------------
Reading zone 2 points:
Two dimensional problem.
14004 points and 109 ghost points before parallel partitioning.
Performing linear partitioning of the grid nodes.
Reading zone 2 elements:
18337 interior elements before parallel partitioning.
Calling the partitioning functions.
Building the graph adjacency structure.
Reading zone 2 elements:
Distributing elements across all ranks.
Reading zone 2 markers:
7 surface markers.
31 boundary elements in index 0 (Marker = inletrotor).
31 boundary elements in index 1 (Marker = outletrotor).
50 boundary elements in index 2 (Marker = wall1rotor).
50 boundary elements in index 3 (Marker = wall2rotor).
324 boundary elements in index 4 (Marker = bladerotor).
2 periodic transformations.
Calling ParMETIS...
Finished partitioning using ParMETIS (778 edge cuts).
Communicating partition data and creating halo layers.
19113 interior elements including halo cells. 
9155 triangles.
9958 quadrilaterals.
15475 vertices including ghost points. 
Establishing MPI communication patterns.

------------------------- Geometry Preprocessing ------------------------
Setting point connectivity.
Renumbering points (Reverse Cuthill McKee Ordering).
Recomputing point connectivity.
Setting element connectivity.
Checking the numerical grid orientation.
Identifying edges and vertices.
Computing centers of gravity.
Setting the control volume structure.
Area of the computational grid: 0.0308.
Searching for the closest normal neighbors to the surfaces.
Storing a mapping from global to local point index.
Compute the surface curvature.
Max K: 400. Mean K: 20.5. Standard deviation K: 57.
Checking for periodicity.
Setting point connectivity.
Renumbering points (Reverse Cuthill McKee Ordering).
Recomputing point connectivity.
Setting element connectivity.
Checking the numerical grid orientation.
Identifying edges and vertices.
Computing centers of gravity.
Setting the control volume structure.
Area of the computational grid: 0.00874.
Searching for the closest normal neighbors to the surfaces.
Storing a mapping from global to local point index.
Compute the surface curvature.
Max K: 738. Mean K: 30.7. Standard deviation K: 95.1.
Checking for periodicity.
Computing wall distances.
Wetted area = 0.355 m.
Area projection in the x-plane = 0.119 m, y-plane = 0.119 m.
Max. coordinate in the x-direction = 0.242 m, y-direction = 0.118 m.
Min coordinate in the x-direction = 0.124 m, y-direction = -0.00044 m,.
Computing wall distances.
Wetted area = 0.226 m.
Area projection in the x-plane = 0.0613 m, y-plane = 0.0878 m.
Max. coordinate in the x-direction = 0.396 m, y-direction = 0.0423 m.
Min coordinate in the x-direction = 0.308 m, y-direction = -0.0185 m,.

------------------------- Driver information --------------------------
A Fluid driver has been instantiated.

------------------------ Iteration Preprocessing ------------------------
Zone 1: Euler/Navier-Stokes/RANS turbomachinery fluid iteration.

------------------------- Solver Preprocessing --------------------------
Viscous flow: Computing pressure using the ideal gas law
based on the free-stream temperature and a density computed
from the Reynolds number.
Force coefficients computed using MACH_MOTION.
-- Input conditions:
Fluid Model: IDEAL_GAS 
Specific gas constant: 298.34 N.m/kg.K.
Specific gas constant (non-dim): 298.34
Specific Heat Ratio: 1.293
Viscosity Model: SUTHERLAND 
Ref. Laminar Viscosity: 1.716e-05 N.s/m^2.
Ref. Temperature: 273.15 K.
Sutherland Constant: 110.4 K.
Laminar Viscosity (non-dim): 1.7e-05
Ref. Temperature (non-dim): 273.15
Sutherland constant (non-dim): 110.4
Conductivity Model: CONSTANT_PRANDTL  
Prandtl: 0.72
Free-stream static pressure: 1.1e+06 Pa.
Free-stream total pressure: 1.12873e+06 Pa.
Free-stream temperature: 1333.15 K.
Free-stream density: 2.76568 kg/m^3.
Free-stream velocity: (143.425, 0) m/s. Magnitude: 143.425 m/s (278.795 KTS).
Free-stream total energy per unit mass: 1.36781e+06 m^2/s^2.
Free-stream viscosity: 4.91614e-05 N.s/m^2.
Free-stream turb. kinetic energy per unit mass: 77.1401 m^2/s^2.
Free-stream specific dissipation: 43396.9 1/s.
-- Reference values:
Reference specific gas constant: 1 N.m/kg.K.
Reference pressure: 1 Pa.
Reference temperature: 1 K.
Reference density: 1 kg/m^3.
Reference velocity: 1 m/s.
Reference energy per unit mass: 1 m^2/s^2.
Reference viscosity: 1 N.s/m^2.
Reference conductivity: 1 W/m^2.K.
-- Resulting non-dimensional state:
Mach number (non-dim): 0.2
Reynolds number (non-dim): 3.19e+06. Re length: 1 m.
Specific gas constant (non-dim): 298.34
Free-stream temperature (non-dim): 1333.15
Free-stream pressure (non-dim): 1.1e+06
Free-stream density (non-dim): 2.76568
Free-stream velocity (non-dim): (143.425, 0). Magnitude: 143.425
Free-stream total energy per unit mass (non-dim): 1.36781e+06
Free-stream viscosity (non-dim): 4.91614e-05
Free-stream turb. kinetic energy (non-dim): 77.1401
Free-stream specific dissipation (non-dim): 43396.9

Initialize Jacobian structure (Navier-Stokes). MG level: 0.
Initialize Jacobian structure (SST model).

----------------- Integration and Numerics Preprocessing ----------------
Integration Preprocessing.
Numerics Preprocessing.

------------------------ Iteration Preprocessing ------------------------
Zone 2: Euler/Navier-Stokes/RANS turbomachinery fluid iteration.

------------------------- Solver Preprocessing --------------------------
Viscous flow: Computing pressure using the ideal gas law
based on the free-stream temperature and a density computed
from the Reynolds number.
Force coefficients computed using MACH_MOTION.
-- Input conditions:
Fluid Model: IDEAL_GAS 
Specific gas constant: 298.34 N.m/kg.K.
Specific gas constant (non-dim): 298.34
Specific Heat Ratio: 1.293
Viscosity Model: SUTHERLAND 
Ref. Laminar Viscosity: 1.716e-05 N.s/m^2.
Ref. Temperature: 273.15 K.
Sutherland Constant: 110.4 K.
Laminar Viscosity (non-dim): 1.7e-05
Ref. Temperature (non-dim): 273.15
Sutherland constant (non-dim): 110.4
Conductivity Model: CONSTANT_PRANDTL  
Prandtl: 0.72
Free-stream static pressure: 1.1e+06 Pa.
Free-stream total pressure: 1.12873e+06 Pa.
Free-stream temperature: 1333.15 K.
Free-stream density: 2.76568 kg/m^3.
Free-stream velocity: (143.425, 0) m/s. Magnitude: 143.425 m/s (278.795 KTS).
Free-stream total energy per unit mass: 1.36781e+06 m^2/s^2.
Free-stream viscosity: 4.91614e-05 N.s/m^2.
Free-stream turb. kinetic energy per unit mass: 77.1401 m^2/s^2.
Free-stream specific dissipation: 43396.9 1/s.
-- Reference values:
Reference specific gas constant: 1 N.m/kg.K.
Reference pressure: 1 Pa.
Reference temperature: 1 K.
Reference density: 1 kg/m^3.
Reference velocity: 1 m/s.
Reference energy per unit mass: 1 m^2/s^2.
Reference viscosity: 1 N.s/m^2.
Reference conductivity: 1 W/m^2.K.
-- Resulting non-dimensional state:
Mach number (non-dim): 0.2
Reynolds number (non-dim): 3.19e+06. Re length: 1 m.
Specific gas constant (non-dim): 298.34
Free-stream temperature (non-dim): 1333.15
Free-stream pressure (non-dim): 1.1e+06
Free-stream density (non-dim): 2.76568
Free-stream velocity (non-dim): (143.425, 0). Magnitude: 143.425
Free-stream total energy per unit mass (non-dim): 1.36781e+06
Free-stream viscosity (non-dim): 4.91614e-05
Free-stream turb. kinetic energy (non-dim): 77.1401
Free-stream specific dissipation (non-dim): 43396.9

Initialize Jacobian structure (Navier-Stokes). MG level: 0.
Initialize Jacobian structure (SST model).

----------------- Integration and Numerics Preprocessing ----------------
Integration Preprocessing.
Numerics Preprocessing.

------------------- Multizone Interface Preprocessing -------------------
Set mixing-plane interface from donor zone 1 to target zone 0.
Set mixing-plane interface from donor zone 0 to target zone 1.
Setting dynamic mesh structure for zone 0.
Setting dynamic mesh structure for zone 1.

--------------------- Initialize Static Mesh Movement --------------------

 Setting translational grid velocities.
 Non-dim. translational velocity: (0, 0, 0).

 Setting translational grid velocities.
 Non-dim. translational velocity: (0, -297.666, 0).

---------------------- Turbomachinery Preprocessing ---------------------

Initialize Turbo Vertex Structure.
Number of span-wise sections in Zone 0: 1.
Number of span-wise sections in Zone 1: 1.
Max number of span-wise sections among all zones: 1.
Initialize solver containers for average and performance quantities.
Compute inflow and outflow average geometric quantities.
Set span-wise sections between zones on Mixing-Plane interface.
Transfer average geometric quantities to zone 0.
Inlet area for Row 1: 1294.2 cm^2.
Oulet area for Row 1: 1294.2 cm^2.
Recomputed number of blades for Row 1: 7.72678.
Inlet area for Row 2: 666.709 cm^2.
Oulet area for Row 2: 666.709 cm^2.
Recomputed number of blades for Row 2: 14.999.
Preprocessing of the Mixing-Plane Interface.
Initialize turbomachinery solution quantities.
Initialize inflow and outflow average solution quantities.
Inlet flow angle for Row 1: 0째.
Outlet flow angle for Row 1: 0째.
Inlet flow angle for Row 2: 0째.
Outlet flow angle for Row 2: 0째.

------------------------------ Begin Solver -----------------------------

------------------------ Evaluate Special Output ------------------------
Computing surface mean values.
Surface (blade): Mass flow (kg/s): 0.0000, Mach: 0.0000, T (K): 0.0000,
     P (Pa): 0.0000, Rho (kg/m^3): 0.0000, Vn (m/s): 0.0000,
     TT (K): 0.0000, PT (Pa): 0.0000.
Surface (bladerotor): Mass flow (kg/s): 0.0000, Mach: 0.0000, T (K): 0.0000,
     P (Pa): 0.0000, Rho (kg/m^3): 0.0000, Vn (m/s): 0.0000,
     TT (K): 0.0000, PT (Pa): 0.0000.
Surface (wall1): Mass flow (kg/s): 0.0000, Mach: 0.0000, T (K): 0.0000,
     P (Pa): 0.0000, Rho (kg/m^3): 0.0000, Vn (m/s): 0.0000,
     TT (K): 0.0000, PT (Pa): 0.0000.
Surface (inlet): Mass flow (kg/s): 48.8324, Mach: 0.1920, T (K): 1330.1223,
     P (Pa): 53161567.0663, Rho (kg/m^3): 1330.1223, Vn (m/s): 1330.1223,
     TT (K): 1337.3064, PT (Pa): 1114840.8765.
Surface (outlet): Mass flow (kg/s): -51.3341, Mach: 0.2000, T (K): 1333.2263,
     P (Pa): -56470788.8800, Rho (kg/m^3): 1333.2263, Vn (m/s): 1333.2263,
     TT (K): 1341.0377, PT (Pa): 1128793.2037.
Surface (wall2): Mass flow (kg/s): 55.5258, Mach: 0.2000, T (K): 1333.2184,
     P (Pa): 61080306.7067, Rho (kg/m^3): 1333.2184, Vn (m/s): 1333.2184,
     TT (K): 1341.0292, PT (Pa): 1128761.5121.
Surface (wall1rotor): Mass flow (kg/s): 0.0000, Mach: 0.0000, T (K): 0.0000,
     P (Pa): 0.0000, Rho (kg/m^3): 0.0000, Vn (m/s): 0.0000,
     TT (K): 0.0000, PT (Pa): 0.0000.
Surface (wall2rotor): Mass flow (kg/s): 0.0000, Mach: 0.0000, T (K): 0.0000,
     P (Pa): 0.0000, Rho (kg/m^3): 0.0000, Vn (m/s): 0.0000,
     TT (K): 0.0000, PT (Pa): 0.0000.
Surface (inletrotor): Mass flow (kg/s): 0.0000, Mach: 0.0000, T (K): 0.0000,
     P (Pa): 0.0000, Rho (kg/m^3): 0.0000, Vn (m/s): 0.0000,
     TT (K): 0.0000, PT (Pa): 0.0000.
Surface (outletrotor): Mass flow (kg/s): 0.0000, Mach: 0.0000, T (K): 0.0000,
     P (Pa): 0.0000, Rho (kg/m^3): 0.0000, Vn (m/s): 0.0000,
     TT (K): 0.0000, PT (Pa): 0.0000.
Writing surface analysis files (surface_analysis.dat).

Writing the forces breakdown file (forces_breakdown.dat).
-------------------------------------------------------------------------


---------------------- Local Time Stepping Summary ----------------------
MG level: 0 -> Min. DT: 0.0000. Max. DT: 0.0000. CFL: 5.0000.
-------------------------------------------------------------------------

------------------------- Turbomachinery Summary ------------------------


----------------------------- Blade 1 -----------------------------------
BC Inlet convergence monitoring marker inlet : 

     Inlet Total Enthalpy     Inlet Total Enthalpy BC     err(%)
             1760575.7875             1755178.9710                   0.3075

     Inlet Entropy            Inlet Entropy BC            err(%)
                7022.9991                7022.9386                   0.0009

     Inlet Absolute Angle     Inlet Absolute Angle BC     err(%)
                  -0.0017                   0.0000                      inf

     Inlet TurbIntensity      Inlet TurbIntensity BC      err(%)
                   0.0521                   0.0500                   4.1083

     Inlet Turb2LamRatio      Inlet Turb2LamRatio BC      err(%)
                  99.2559                 100.0000                   0.7441

Convergence monitoring for integral quantities between markers inlet and outlet : 

     Inlet Mass Flow          Outlet Mass Flow            err(%)
                 377.3176                 396.6473                   5.1229

     Inlet Total Rothalpy     Outlet Total Rothalpy       err(%)
             1760575.7875             1765487.0740                   0.2790

Blade performance between boundaries inlet and outlet : 

     Total Pressure Loss(%)   Kinetic Energy Loss(%)      Entropy Generation(%)
                 -94.4184                  -0.5630       4121502505576.7778

     Total Inlet Enthalpy     Eulerian Work               Pressure Ratio
             1760575.7875               -4911.2865                   1.0125

     Inlet Entropy            Outlet Entropy             Outlet Is. Enthalpy
                7022.9991                7022.9559                   1.2762

Cinematic quantities between boundaries inlet and outlet : 

     Inlet Mach               Inlet Normal Mach            Inlet Tang. Mach
                   0.1920                   0.1920                  -0.0000

     Outlet Mach              Outlet Normal Mach           Outlet Tang. Mach
                   0.2000                   0.2000                   0.0000

     Inlet Flow Angle         Outlet flow Angle  
                  -0.0017                   0.0000

     Inlet Abs Flow Angle     Outlet Abs Flow Angle  
                  -0.0017                   0.0000

-------------------------------------------------------------------------


---------- Mixing-Plane Interface between Blade 1 and Blade 2 -----------

Convergence monitoring for the outlet  outlet and the inlet  inletrotor : 

     Outlet Density           Inlet Density               err(%)
                   2.7656                   2.7656                   0.0002

     Outlet Pressure          Inlet Pressure              err(%)
             1100001.1328             1099997.7835                   0.0003

     Outlet Normal Velocity   Inlet Normal Velocity       err(%)
                 143.4193                 143.4340                   0.0103

     Outlet Tang. Velocity    Inlet Tang. Velocity        err(%)
                   0.0000                   0.0004                  99.7235

     Outlet Entropy           Inlet Entropy               err(%)
                7022.9559                7022.9559                   0.0000

     Outlet TurbIntensity     Inlet TurbIntensity         err(%)
                   0.0498                   0.0499                   0.3007

     Outlet Turb2LamRatio     Inlet Turb2LamRatio         err(%)
                  99.9191                  99.9768                   0.0577

-------------------------------------------------------------------------


----------------------------- Blade 2 -----------------------------------
BC outlet convergence monitoring  marker outletrotor : 

     Outlet Pressure          Outlet Pressure BC          err(%)
             1099976.1529             1100000.0000                   0.0022

Convergence monitoring for integral quantities between markers inletrotor and outletrotor : 

     Inlet Mass Flow          Outlet Mass Flow            err(%)
                 396.6870                 396.6764                   0.0027

     Inlet Total Rothalpy     Outlet Total Rothalpy       err(%)
             1765488.0846             1765480.0508                   0.0005

Blade performance between boundaries inletrotor and outletrotor : 

     Total Pressure Loss(%)   Kinetic Energy Loss(%)      Entropy Generation(%)
                   0.0790                   0.0000         -1074675649.2773

     Total Inlet Enthalpy     Eulerian Work               Pressure Ratio
             1765487.9774                   8.0470                   1.0000

     Inlet Entropy            Outlet Entropy             Outlet Is. Enthalpy
                7022.9559                7022.9560                   1.2632

Cinematic quantities between boundaries inletrotor and outletrotor : 

     Inlet Mach               Inlet Normal Mach            Inlet Tang. Mach
                   0.4608                   0.2000                   0.4151

     Outlet Mach              Outlet Normal Mach           Outlet Tang. Mach
                   0.4608                   0.2000                   0.4151

     Inlet Flow Angle         Outlet flow Angle  
                  64.2724                  64.2726

     Inlet Abs Flow Angle     Outlet Abs Flow Angle  
                   0.0001                   0.0002

-------------------------------------------------------------------------


----------------------------- Stage 1 -----------------------------------
Stage performance between boundaries inlet and outletrotor : 

     Total-Total Eff.(%)      Total-Static Eff.(%)      Entropy Generation(%)
                  98.8399                 -92.1014       4120427829927.5000

     Pressure Ratio           Outlet Is. Enthalpy       In-Out MassFlow Diff (%)
                   1.0125             1755251.0684                   5.1306

-------------------------------------------------------------------------


---------------------------- Turbine ------------------------------------
Turbine performance between boundaries inlet and outletrotor : 

     Total-Total Eff.(%)      Total-Static Eff.(%)      Entropy Generation(%)
                  98.8399                 -92.1014       4120427829927.5000

     Pressure Ratio           Outlet Is. Enthalpy       In-Out MassFlow Diff (%)
                   1.0125             1755251.0684                   5.1306

-------------------------------------------------------------------------


----------------------- Residual Evolution Summary ----------------------
log10[Maximum residual]: -0.2539.
Maximum residual point 11177, located at (0.2082, 0.0359).
Maximum Omega 2039128.2942, maximum Strain Rate 2039131.9098.
-------------------------------------------------------------------------

 Iter    Time(s)      Res[Rho]     Res[kine]     Res[omega] TTEfficiency(%) Entropy Gen.(%)
    0   0.038611     -1.236288      0.754261       4.575859   9.883992e+01   4.120428e+12

------------------------ Evaluate Special Output ------------------------
Computing surface mean values.
Surface (blade): Mass flow (kg/s): 27.6156, Mach: 0.1604, T (K): 1578.7855,
     P (Pa): 53794539.3044, Rho (kg/m^3): 1578.7855, Vn (m/s): 1578.7855,
     TT (K): 1578.1456, PT (Pa): 2002388.2676.
Surface (bladerotor): Mass flow (kg/s): 0.0000, Mach: 0.0000, T (K): 0.0000,
     P (Pa): 0.0000, Rho (kg/m^3): 0.0000, Vn (m/s): 0.0000,
     TT (K): 0.0000, PT (Pa): 0.0000.
Surface (wall1): Mass flow (kg/s): -26.4468, Mach: 0.2000, T (K): 1333.2194,
     P (Pa): -29092512.5082, Rho (kg/m^3): 1333.2194, Vn (m/s): 1333.2194,
     TT (K): 1341.0323, PT (Pa): 1128772.9955.
Surface (inlet): Mass flow (kg/s): 26.4475, Mach: 0.2000, T (K): 1333.2254,
     P (Pa): 29093867.8132, Rho (kg/m^3): 1333.2254, Vn (m/s): 1333.2254,
     TT (K): 1341.0384, PT (Pa): 1128795.7423.
Surface (outlet): Mass flow (kg/s): -13.9319, Mach: 0.2000, T (K): 1333.2258,
     P (Pa): -15325973.9881, Rho (kg/m^3): 1333.2258, Vn (m/s): 1333.2258,
     TT (K): 1341.0380, PT (Pa): 1128794.2958.
Surface (wall2): Mass flow (kg/s): -27.6156, Mach: 0.5315, T (K): 1227.1880,
     P (Pa): -22778845.5914, Rho (kg/m^3): 1227.1880, Vn (m/s): 1227.1880,
     TT (K): 1277.9950, PT (Pa): 986382.8669.
Surface (wall1rotor): Mass flow (kg/s): 0.0000, Mach: 0.0000, T (K): 0.0000,
     P (Pa): 0.0000, Rho (kg/m^3): 0.0000, Vn (m/s): 0.0000,
     TT (K): 0.0000, PT (Pa): 0.0000.
Surface (wall2rotor): Mass flow (kg/s): 0.0000, Mach: 0.0000, T (K): 0.0000,
     P (Pa): 0.0000, Rho (kg/m^3): 0.0000, Vn (m/s): 0.0000,
     TT (K): 0.0000, PT (Pa): 0.0000.
Surface (inletrotor): Mass flow (kg/s): 0.0000, Mach: 0.0000, T (K): 0.0000,
     P (Pa): 0.0000, Rho (kg/m^3): 0.0000, Vn (m/s): 0.0000,
     TT (K): 0.0000, PT (Pa): 0.0000.
Surface (outletrotor): Mass flow (kg/s): 0.0000, Mach: 0.0000, T (K): 0.0000,
     P (Pa): 0.0000, Rho (kg/m^3): 0.0000, Vn (m/s): 0.0000,
     TT (K): 0.0000, PT (Pa): 0.0000.
Writing surface analysis files (surface_analysis.dat).

Writing the forces breakdown file (forces_breakdown.dat).
-------------------------------------------------------------------------

    0   0.038611     -1.216555      0.385582       5.334125   9.883992e+01   4.120428e+12
    1   0.155118     -1.421981      0.757136       4.505903   9.917055e+01   3.746716e+12
    2   0.117218     -1.704956      0.735517       4.300250   9.962746e+01   5.207252e+11
    3   0.099078     -1.878188      0.699395       4.223653   1.000810e+02  -3.448897e+12
    4   0.088164     -1.995900      0.649813       4.188045   1.005780e+02  -8.482355e+12
    5   0.080853     -2.076949      0.589471       4.157560   1.014645e+02  -2.023985e+13
    6   0.075633     -2.136284      0.524023       4.122686   1.027298e+02  -2.628597e+13
    7   0.071688     -2.176213      0.462751       4.080563   1.037532e+02  -3.367410e+13
    8   0.068558     -2.189177      0.412523       4.032260   1.041743e+02  -6.423920e+13
    9   0.066667     -2.162898      0.376982       3.978723   1.044243e+02  -9.830070e+13
   10   0.064518     -2.089484      0.357841       3.919275   1.054310e+02  -1.811065e+14
   11   0.062505     -2.005849      0.352022       3.855217   1.066645e+02  -2.626746e+14
   12   0.060769     -2.014022      0.346562       3.797725   1.078316e+02  -3.649861e+14
   13   0.059151     -2.076997      0.333541       3.747207   1.095027e+02  -4.263067e+14
   14   0.057751     -2.143492      0.312743       3.697245   1.114648e+02  -4.648996e+14
   15   0.056529     -2.202448      0.286918       3.644637   1.134087e+02  -4.372882e+14
   16   0.055447     -2.235786      0.259394       3.597100   1.154873e+02  -4.400118e+14
   17   0.054484     -2.221830      0.231874       3.561739   1.253524e+02  -4.651434e+14
   18   0.053626     -2.175292      0.204898       3.540706   1.314353e+02  -4.689856e+14
   19   0.052850     -2.122789      0.178574       3.531608   1.410052e+02  -4.790332e+14
   20   0.052157     -2.076001      0.153357       3.525051   1.502132e+02  -4.846301e+14
   21   0.051519     -2.079310      0.133349       3.520729   2.181561e+02   3.907276e+01
   22   0.050940     -2.109591      0.119689       3.517155   3.689508e+02   3.758504e+01
   23   0.050405     -2.142036      0.111221       3.513283   9.974001e+02   3.684327e+01
   24   0.049912     -2.170195      0.105540       3.505881  -1.910099e+03   3.540045e+01
   25   0.049460     -2.199910      0.100260       3.494388  -5.434058e+02   3.538841e+01
   26   0.049037     -2.232622      0.093547       3.479237  -3.513195e+02   3.633899e+01
   27   0.048648     -2.267253      0.084645       3.461071  -2.801951e+02   3.765930e+01
   28   0.048285     -2.301768      0.073637       3.440748  -2.513004e+02   3.889424e+01
   29   0.047945     -2.333060      0.060928       3.418728  -2.458667e+02   4.037997e+01
   30   0.047627     -2.357582      0.046611       3.394456  -2.617407e+02   4.131800e+01
   31   0.047329     -2.371118      0.031126       3.367984  -3.155919e+02   4.380909e+01
   32   0.047050     -2.371309      0.015436       3.339595  -4.047552e+02   4.596622e+01
   33   0.046787     -2.362590      0.001193       3.309883  -5.543236e+02   4.761729e+01
   34   0.046538     -2.355610     -0.009171       3.279942  -7.855490e+02   4.909508e+01
   35   0.046306     -2.358624     -0.013881       3.250865  -1.143377e+03   4.984981e+01
   36   0.046087     -2.372043     -0.012739       3.223468  -1.819778e+03   5.233205e+01
   37   0.045876     -2.391710     -0.006490       3.197892  -3.426419e+03   5.345940e+01
   38   0.045677     -2.414550      0.003660       3.173848  -3.106935e+04   5.433534e+01
   39   0.045487     -2.435483      0.016194       3.150418   5.342547e+03   5.431165e+01

---------------------- Local Time Stepping Summary ----------------------
MG level: 0 -> Min. DT: 5.88835e-07. Max. DT: 5.99217e-06. CFL: 24.985.
-------------------------------------------------------------------------

------------------------- Turbomachinery Summary ------------------------


----------------------------- Blade 1 -----------------------------------
BC Inlet convergence monitoring marker inlet : 

     Inlet Total Enthalpy     Inlet Total Enthalpy BC     err(%)
              1.75327e+06              1.75518e+06                  0.10884

     Inlet Entropy            Inlet Entropy BC            err(%)
                     7023                  7022.94               0.00090565

     Inlet Absolute Angle     Inlet Absolute Angle BC     err(%)
               -0.0195338                        0                      inf

     Inlet TurbIntensity      Inlet TurbIntensity BC      err(%)
                0.0403306                     0.05                  19.3388

     Inlet Turb2LamRatio      Inlet Turb2LamRatio BC      err(%)
                  153.395                      100                  53.3954

Convergence monitoring for integral quantities between markers inlet and outlet : 

     Inlet Mass Flow          Outlet Mass Flow            err(%)
                  234.248                  210.619                  10.0874

     Inlet Total Rothalpy     Outlet Total Rothalpy       err(%)
              1.75327e+06              1.72585e+06                  1.56387

Blade performance between boundaries inlet and outlet : 

     Total Pressure Loss(%)   Kinetic Energy Loss(%)      Entropy Generation(%)
                  81.8432                  56.0652                  73.6845

     Total Inlet Enthalpy     Eulerian Work               Pressure Ratio
              1.75327e+06                  27418.8                 0.905012

     Inlet Entropy            Outlet Entropy             Outlet Is. Enthalpy
                     7023                  7032.03                   1.7977

Cinematic quantities between boundaries inlet and outlet : 

     Inlet Mach               Inlet Normal Mach            Inlet Tang. Mach
                 0.119614                 0.119614             -4.07799e-05

     Outlet Mach              Outlet Normal Mach           Outlet Tang. Mach
                 0.191154                  0.11941                -0.149269

     Inlet Flow Angle         Outlet flow Angle  
               -0.0195338                 -51.3416

     Inlet Abs Flow Angle     Outlet Abs Flow Angle  
               -0.0195338                 -51.3416

-------------------------------------------------------------------------


---------- Mixing-Plane Interface between Blade 1 and Blade 2 -----------

Convergence monitoring for the outlet  outlet and the inlet  inletrotor : 

     Outlet Density           Inlet Density               err(%)
                  2.48703                  2.51661                  1.17528

     Outlet Pressure          Inlet Pressure              err(%)
                   967465                   982619                  1.54223

     Outlet Normal Velocity   Inlet Normal Velocity       err(%)
                  84.6866                  83.9231                 0.909775

     Outlet Tang. Velocity    Inlet Tang. Velocity        err(%)
                 -105.864                 -99.6499                  6.23551

     Outlet Entropy           Inlet Entropy               err(%)
                  7032.03                  7032.29               0.00370783

     Outlet TurbIntensity     Inlet TurbIntensity         err(%)
                0.0375595                0.0390268                  3.75982

     Outlet Turb2LamRatio     Inlet Turb2LamRatio         err(%)
                  100.897                  99.9777                 0.919183

-------------------------------------------------------------------------


----------------------------- Blade 2 -----------------------------------
BC outlet convergence monitoring  marker outletrotor : 

     Outlet Pressure          Outlet Pressure BC          err(%)
              1.07939e+06               1.0776e+06                 0.165808

Convergence monitoring for integral quantities between markers inletrotor and outletrotor : 

     Inlet Mass Flow          Outlet Mass Flow            err(%)
                  211.202                  236.827                   12.133

     Inlet Total Rothalpy     Outlet Total Rothalpy       err(%)
              1.70188e+06              1.74396e+06                  2.47253

Blade performance between boundaries inletrotor and outletrotor : 

     Total Pressure Loss(%)   Kinetic Energy Loss(%)      Entropy Generation(%)
                  76.3437                 -10.6523                 -18.3224

     Total Inlet Enthalpy     Eulerian Work               Pressure Ratio
              1.73154e+06                 -31441.4                  1.09082

     Inlet Entropy            Outlet Entropy             Outlet Is. Enthalpy
                  7032.29                  7030.04                  1.38502

Cinematic quantities between boundaries inletrotor and outletrotor : 

     Inlet Mach               Inlet Normal Mach            Inlet Tang. Mach
                 0.302683                 0.118113                 0.278687

     Outlet Mach              Outlet Normal Mach           Outlet Tang. Mach
                 0.347789                 0.121756                 0.325781

     Inlet Flow Angle         Outlet flow Angle  
                  67.0318                  69.5074

     Inlet Abs Flow Angle     Outlet Abs Flow Angle  
                 -49.8966                 -36.1877

-------------------------------------------------------------------------


----------------------------- Stage 1 -----------------------------------
Stage performance between boundaries inlet and outletrotor : 

     Total-Total Eff.(%)      Total-Static Eff.(%)      Entropy Generation(%)
                  2813.59                 -176.266                  55.3621

     Pressure Ratio           Outlet Is. Enthalpy       In-Out MassFlow Diff (%)
                 0.811171              1.74776e+06                   1.1009

-------------------------------------------------------------------------


---------------------------- Turbine ------------------------------------
Turbine performance between boundaries inlet and outletrotor : 

     Total-Total Eff.(%)      Total-Static Eff.(%)      Entropy Generation(%)
                  2813.59                 -176.266                  55.3621

     Pressure Ratio           Outlet Is. Enthalpy       In-Out MassFlow Diff (%)
                 0.811171              1.74776e+06                   1.1009

-------------------------------------------------------------------------


----------------------- Residual Evolution Summary ----------------------
log10[Maximum residual]: -1.17864.
Maximum residual point 8018, located at (0.28, 0.00353601).
Maximum Omega 1.44426e+06, maximum Strain Rate 1.44468e+06.
-------------------------------------------------------------------------

 Iter    Time(s)      Res[Rho]     Res[kine]     Res[omega] TTEfficiency(%) Entropy Gen.(%)
   40   0.045306     -2.460917      0.030014       3.127799   2.813585e+03   5.536208e+01
   41   0.045140     -2.492457      0.043811       3.106152  -1.357097e+02   2.877755e+01
   42   0.044942     -2.530105      0.053426       3.084077  -6.128104e+01   2.854423e+01
   43   0.044786     -2.624823      0.066483       3.073270  -5.190081e+01   2.913325e+01
   44   0.044638     -2.643905      0.073351       3.059123  -5.544945e+01   2.927296e+01
   45   0.044496     -2.660819      0.077946       3.044724  -5.861690e+01   3.016521e+01
   46   0.044361     -2.685970      0.080242       3.031666  -6.137961e+01   2.920880e+01
   47   0.044230     -2.707641      0.079722       3.020815  -6.326582e+01   3.063073e+01
   48   0.044105     -2.715057      0.075816       3.012640  -6.583925e+01   3.152389e+01
   49   0.043991     -2.705931      0.068321       3.007291  -6.331326e+01   3.224847e+01
   50   0.043881     -2.683348      0.056561       3.002874  -6.068418e+01   3.291332e+01
   51   0.043769     -2.669859      0.042907       2.999300  -5.787126e+01   3.453234e+01
   52   0.043661     -2.677068      0.029081       2.996654  -5.573232e+01   3.540419e+01
   53   0.043558     -2.696724      0.015639       2.994757  -5.246595e+01   3.659748e+01
   54   0.043458     -2.722512      0.002586       2.993167  -5.087273e+01   3.743440e+01
   55   0.043363     -2.751538     -0.010344       2.991536  -4.933634e+01   3.853576e+01
   56   0.043270     -2.784475     -0.023078       2.989691  -4.780696e+01   4.007725e+01
   57   0.043181     -2.824045     -0.034930       2.987402  -4.636584e+01   4.053146e+01
   58   0.043094     -2.870558     -0.045647       2.983741  -4.602674e+01   4.201465e+01
   59   0.043010     -2.926248     -0.054273       2.979248  -4.661154e+01   4.324363e+01
   60   0.042929     -2.981120     -0.060122       2.974550  -4.742280e+01   4.429695e+01
   61   0.042910     -3.025315     -0.063522       2.969887  -3.369433e-01   2.971128e+01
   62   0.042852     -3.048415     -0.066971       2.962814   8.537426e+00   3.019016e+01
   63   0.042791     -3.054716     -0.067245       2.958632   1.090128e+01   3.067597e+01
   64   0.042718     -3.032323     -0.067414       2.953763   1.090539e+01   3.143770e+01
   65   0.042652     -2.987132     -0.067133       2.948709   8.813697e+00   3.234753e+01
   66   0.042588     -2.934237     -0.066230       2.943249   7.315336e+00   3.282369e+01
   67   0.042526     -2.888018     -0.063892       2.938207   5.564085e+00   3.327532e+01
   68   0.042466     -2.848869     -0.060659       2.931639   3.337130e+00   3.367122e+01
   69   0.042403     -2.841341     -0.056126       2.925018  -5.010880e-01   3.448762e+01
   70   0.042342     -2.859195     -0.050394       2.919907  -2.816992e+00   3.477916e+01
   71   0.042283     -2.882789     -0.043838       2.915997  -5.017569e+00   3.507183e+01
   72   0.042226     -2.904685     -0.036677       2.912636  -7.211914e+00   3.565729e+01
   73   0.042169     -2.925795     -0.029191       2.909457  -9.505636e+00   3.587032e+01
   74   0.042115     -2.947868     -0.021450       2.906429  -1.197119e+01   3.615659e+01
   75   0.042061     -2.971459     -0.013734       2.903314  -1.466178e+01   3.649902e+01
   76   0.042009     -2.996360     -0.006069       2.900134  -1.762310e+01   3.688639e+01
   77   0.041958     -3.022080      0.001395       2.896694  -2.089710e+01   3.762152e+01
   78   0.041908     -3.048077      0.008541       2.892942  -2.452359e+01   3.763123e+01
   79   0.041859     -3.074786      0.015386       2.888919  -2.854325e+01   3.804058e+01

---------------------- Local Time Stepping Summary ----------------------
MG level: 0 -> Min. DT: 6.09882e-07. Max. DT: 6.23826e-06. CFL: 26.2568.
-------------------------------------------------------------------------

------------------------- Turbomachinery Summary ------------------------


----------------------------- Blade 1 -----------------------------------
BC Inlet convergence monitoring marker inlet : 

     Inlet Total Enthalpy     Inlet Total Enthalpy BC     err(%)
              1.75535e+06              1.75518e+06               0.00987156

     Inlet Entropy            Inlet Entropy BC            err(%)
                  7022.92                  7022.94              0.000236937

     Inlet Absolute Angle     Inlet Absolute Angle BC     err(%)
              -0.00642315                        0                      inf

     Inlet TurbIntensity      Inlet TurbIntensity BC      err(%)
                0.0497987                     0.05                 0.402615

     Inlet Turb2LamRatio      Inlet Turb2LamRatio BC      err(%)
                  99.4229                      100                 0.577061

Convergence monitoring for integral quantities between markers inlet and outlet : 

     Inlet Mass Flow          Outlet Mass Flow            err(%)
                  255.578                  245.853                  3.80499

     Inlet Total Rothalpy     Outlet Total Rothalpy       err(%)
              1.75535e+06              1.75879e+06                 0.196034

Blade performance between boundaries inlet and outlet : 

     Total Pressure Loss(%)   Kinetic Energy Loss(%)      Entropy Generation(%)
                  32.9679                  39.7071                  24.2967

     Total Inlet Enthalpy     Eulerian Work               Pressure Ratio
              1.75535e+06                 -3441.08                 0.978464

     Inlet Entropy            Outlet Entropy             Outlet Is. Enthalpy
                  7022.92                     7032                 -3.16329

Cinematic quantities between boundaries inlet and outlet : 

     Inlet Mach               Inlet Normal Mach            Inlet Tang. Mach
                 0.130059                 0.130059             -1.45803e-05

     Outlet Mach              Outlet Normal Mach           Outlet Tang. Mach
                 0.266811                 0.132007                -0.231866

     Inlet Flow Angle         Outlet flow Angle  
              -0.00642315                 -60.3461

     Inlet Abs Flow Angle     Outlet Abs Flow Angle  
              -0.00642315                 -60.3461

-------------------------------------------------------------------------


---------- Mixing-Plane Interface between Blade 1 and Blade 2 -----------

Convergence monitoring for the outlet  outlet and the inlet  inletrotor : 

     Outlet Density           Inlet Density               err(%)
                  2.60789                  2.60908                0.0459126

     Outlet Pressure          Inlet Pressure              err(%)
              1.02865e+06               1.0297e+06                 0.101934

     Outlet Normal Velocity   Inlet Normal Velocity       err(%)
                  94.2728                  93.4151                 0.918197

     Outlet Tang. Velocity    Inlet Tang. Velocity        err(%)
                 -165.587                 -160.252                  3.32883

     Outlet Entropy           Inlet Entropy               err(%)
                     7032                  7032.43               0.00616906

     Outlet TurbIntensity     Inlet TurbIntensity         err(%)
                0.0268033                0.0273552                  2.01749

     Outlet Turb2LamRatio     Inlet Turb2LamRatio         err(%)
                  130.629                  128.743                  1.46515

-------------------------------------------------------------------------


----------------------------- Blade 2 -----------------------------------
BC outlet convergence monitoring  marker outletrotor : 

     Outlet Pressure          Outlet Pressure BC          err(%)
              1.03293e+06               1.0328e+06                0.0124797

Convergence monitoring for integral quantities between markers inletrotor and outletrotor : 

     Inlet Mass Flow          Outlet Mass Flow            err(%)
                  243.728                  175.964                  27.8029

     Inlet Total Rothalpy     Outlet Total Rothalpy       err(%)
              1.71112e+06              1.72247e+06                   0.6633

Blade performance between boundaries inletrotor and outletrotor : 

     Total Pressure Loss(%)   Kinetic Energy Loss(%)      Entropy Generation(%)
                  13.5628                  29.4232                  14.2061

     Total Inlet Enthalpy     Eulerian Work               Pressure Ratio
              1.75882e+06                 -1390.64                 0.985807

     Inlet Entropy            Outlet Entropy             Outlet Is. Enthalpy
                  7032.43                  7037.73                 -5.15506

Cinematic quantities between boundaries inletrotor and outletrotor : 

     Inlet Mach               Inlet Normal Mach            Inlet Tang. Mach
                 0.232602                  0.13077                 0.192362

     Outlet Mach              Outlet Normal Mach           Outlet Tang. Mach
                 0.256604                0.0943398                 0.238633

     Inlet Flow Angle         Outlet flow Angle  
                  55.7918                  68.4294

     Inlet Abs Flow Angle     Outlet Abs Flow Angle  
                  -59.761                  -61.953

-------------------------------------------------------------------------


----------------------------- Stage 1 -----------------------------------
Stage performance between boundaries inlet and outletrotor : 

     Total-Total Eff.(%)      Total-Static Eff.(%)      Entropy Generation(%)
                 -33.0053                 -19.4022                  38.5028

     Pressure Ratio           Outlet Is. Enthalpy       In-Out MassFlow Diff (%)
                 0.974409              1.73031e+06                  31.1503

-------------------------------------------------------------------------


---------------------------- Turbine ------------------------------------
Turbine performance between boundaries inlet and outletrotor : 

     Total-Total Eff.(%)      Total-Static Eff.(%)      Entropy Generation(%)
                 -33.0053                 -19.4022                  38.5028

     Pressure Ratio           Outlet Is. Enthalpy       In-Out MassFlow Diff (%)
                 0.974409              1.73031e+06                  31.1503

-------------------------------------------------------------------------


----------------------- Residual Evolution Summary ----------------------
log10[Maximum residual]: -1.90785.
Maximum residual point 11035, located at (0.28, -0.1).
Maximum Omega 1.05102e+06, maximum Strain Rate 1.05182e+06.
-------------------------------------------------------------------------

 Iter    Time(s)      Res[Rho]     Res[kine]     Res[omega] TTEfficiency(%) Entropy Gen.(%)
   80   0.041813     -3.099358      0.021940       2.884642  -3.300526e+01   3.850277e+01
   81   0.041770     -3.123322      0.028247       2.880075  -8.332232e-01   2.868424e+01
   82   0.041684     -3.146270      0.029224       2.866417   5.782963e+00   2.878402e+01
   83   0.041640     -3.178012      0.036787       2.871771   6.433058e+00   2.908529e+01
   84   0.041598     -3.190624      0.043713       2.868747   4.898396e+00   2.918967e+01
   85   0.041561     -3.200803      0.052523       2.865450   1.546500e-01   2.964816e+01
   86   0.041523     -3.205793      0.062239       2.858741  -5.751174e+00   3.025255e+01
   87   0.041487     -3.207544      0.071118       2.848275  -1.009056e+01   3.056352e+01
   88   0.041452     -3.214345      0.079718       2.838177  -1.509318e+01   3.140776e+01
   89   0.041417     -3.221321      0.088826       2.829346  -2.023099e+01   3.190378e+01
   90   0.041383     -3.221479      0.098090       2.820424  -2.443066e+01   3.219977e+01
   91   0.041350     -3.217342      0.106988       2.811235  -2.933930e+01   3.276900e+01
   92   0.041318     -3.214437      0.115121       2.802057  -3.393647e+01   3.357288e+01
   93   0.041284     -3.214444      0.122571       2.793161  -3.824533e+01   3.400495e+01
   94   0.041250     -3.216886      0.129221       2.784623  -4.230260e+01   3.446228e+01
   95   0.041221     -3.220852      0.135185       2.776573  -4.613369e+01   3.517070e+01
   96   0.041189     -3.225729      0.140551       2.769052  -4.976095e+01   3.549683e+01
   97   0.041156     -3.231009      0.145369       2.761984  -5.319373e+01   3.585423e+01
   98   0.041125     -3.236555      0.149699       2.755250  -5.643013e+01   3.647755e+01
   99   0.041094     -3.242634      0.153592       2.748756  -5.946623e+01   3.671350e+01
  100   0.041064     -3.249556      0.157085       2.742455  -6.230063e+01   3.698548e+01
  101   0.041034     -3.257481      0.160210       2.736378  -2.670181e+01   3.010756e+01
  102   0.040955     -3.266449      0.160310       2.723171  -1.878845e+01   3.012824e+01
  103   0.040927     -3.298637      0.164018       2.727619  -1.591384e+01   3.023699e+01
  104   0.040909     -3.297926      0.166603       2.723318  -1.538226e+01   3.026718e+01
  105   0.040885     -3.295450      0.169188       2.719695  -1.636510e+01   3.067660e+01
  106   0.040862     -3.296452      0.171509       2.715694  -1.763364e+01   3.080171e+01
  107   0.040839     -3.299960      0.173419       2.711328  -1.936735e+01   3.111221e+01
  108   0.040816     -3.302944      0.174458       2.704519  -2.044354e+01   3.129175e+01
  109   0.040793     -3.309210      0.174952       2.697241  -2.137332e+01   3.145535e+01
  110   0.040771     -3.320695      0.175167       2.690975  -2.212461e+01   3.159646e+01
  111   0.040747     -3.334566      0.175305       2.686064  -2.268195e+01   3.171589e+01
  112   0.040726     -3.346315      0.175347       2.682136  -2.307180e+01   3.181562e+01
  113   0.040702     -3.354132      0.175266       2.678876  -2.333898e+01   3.189748e+01
  114   0.040678     -3.358621      0.175111       2.676147  -2.352329e+01   3.196339e+01
  115   0.040656     -3.360819      0.174852       2.673912  -2.365299e+01   3.201544e+01
  116   0.040633     -3.361182      0.174535       2.672158  -2.430414e+01   3.220179e+01
  117   0.040611     -3.359777      0.174136       2.670843  -2.434520e+01   3.222475e+01
  118   0.040589     -3.356651      0.173653       2.669807  -2.438739e+01   3.224038e+01
  119   0.040568     -3.351933      0.173085       2.669059  -2.443730e+01   3.225084e+01

---------------------- Local Time Stepping Summary ----------------------
MG level: 0 -> Min. DT: 5.95047e-07. Max. DT: 6.0649e-06. CFL: 25.77.
-------------------------------------------------------------------------

------------------------- Turbomachinery Summary ------------------------


----------------------------- Blade 1 -----------------------------------
BC Inlet convergence monitoring marker inlet : 

     Inlet Total Enthalpy     Inlet Total Enthalpy BC     err(%)
              1.75554e+06              1.75518e+06                0.0206421

     Inlet Entropy            Inlet Entropy BC            err(%)
                  7022.92                  7022.94              0.000205003

     Inlet Absolute Angle     Inlet Absolute Angle BC     err(%)
              -0.00619052                        0                      inf

     Inlet TurbIntensity      Inlet TurbIntensity BC      err(%)
                0.0504169                     0.05                 0.833892

     Inlet Turb2LamRatio      Inlet Turb2LamRatio BC      err(%)
                  98.9641                      100                  1.03591

Convergence monitoring for integral quantities between markers inlet and outlet : 

     Inlet Mass Flow          Outlet Mass Flow            err(%)
                  236.079                  234.316                 0.746594

     Inlet Total Rothalpy     Outlet Total Rothalpy       err(%)
              1.75554e+06              1.76458e+06                 0.514648

Blade performance between boundaries inlet and outlet : 

     Total Pressure Loss(%)   Kinetic Energy Loss(%)      Entropy Generation(%)
                  1.71929                   34.025                  11.0398

     Total Inlet Enthalpy     Eulerian Work               Pressure Ratio
              1.75554e+06                 -9034.86                  0.99923

     Inlet Entropy            Outlet Entropy             Outlet Is. Enthalpy
                  7022.92                  7029.91               -0.0427761

Cinematic quantities between boundaries inlet and outlet : 

     Inlet Mach               Inlet Normal Mach            Inlet Tang. Mach
                 0.119913                 0.119913              -1.2956e-05

     Outlet Mach              Outlet Normal Mach           Outlet Tang. Mach
                 0.264702                 0.123265                 -0.23425

     Inlet Flow Angle         Outlet flow Angle  
              -0.00619052                 -62.2462

     Inlet Abs Flow Angle     Outlet Abs Flow Angle  
              -0.00619052                 -62.2462

-------------------------------------------------------------------------


---------- Mixing-Plane Interface between Blade 1 and Blade 2 -----------

Convergence monitoring for the outlet  outlet and the inlet  inletrotor : 

     Outlet Density           Inlet Density               err(%)
                  2.65722                  2.65464                0.0970583

     Outlet Pressure          Inlet Pressure              err(%)
              1.05172e+06              1.05088e+06                0.0799519

     Outlet Normal Velocity   Inlet Normal Velocity       err(%)
                   88.181                  88.5664                 0.435143

     Outlet Tang. Velocity    Inlet Tang. Velocity        err(%)
                 -167.577                 -168.099                 0.310164

     Outlet Entropy           Inlet Entropy               err(%)
                  7029.91                  7030.38               0.00659212

     Outlet TurbIntensity     Inlet TurbIntensity         err(%)
                 0.025093                0.0249936                 0.397849

     Outlet Turb2LamRatio     Inlet Turb2LamRatio         err(%)
                  134.732                  134.847                0.0855004

-------------------------------------------------------------------------


----------------------------- Blade 2 -----------------------------------
BC outlet convergence monitoring  marker outletrotor : 

     Outlet Pressure          Outlet Pressure BC          err(%)
                   987599                   988000                 0.040625

Convergence monitoring for integral quantities between markers inletrotor and outletrotor : 

     Inlet Mass Flow          Outlet Mass Flow            err(%)
                  235.112                  264.408                  12.4601

     Inlet Total Rothalpy     Outlet Total Rothalpy       err(%)
              1.71496e+06              1.70909e+06                 0.342145

Blade performance between boundaries inletrotor and outletrotor : 

     Total Pressure Loss(%)   Kinetic Energy Loss(%)      Entropy Generation(%)
                 -297.356                  57.2276                  21.2181

     Total Inlet Enthalpy     Eulerian Work               Pressure Ratio
                1.765e+06                  4066.39                 0.946298

     Inlet Entropy            Outlet Entropy             Outlet Is. Enthalpy
                  7030.38                  7043.81                  6.79157

Cinematic quantities between boundaries inletrotor and outletrotor : 

     Inlet Mach               Inlet Normal Mach            Inlet Tang. Mach
                 0.219368                 0.123793                 0.181101

     Outlet Mach              Outlet Normal Mach           Outlet Tang. Mach
                 0.227556                 0.147852                 0.172978

     Inlet Flow Angle         Outlet flow Angle  
                  55.6452                   49.478

     Inlet Abs Flow Angle     Outlet Abs Flow Angle  
                 -62.2166                 -58.7746

-------------------------------------------------------------------------


----------------------------- Stage 1 -----------------------------------
Stage performance between boundaries inlet and outletrotor : 

     Total-Total Eff.(%)      Total-Static Eff.(%)      Entropy Generation(%)
                 -24.4983                 -12.6099                   32.258

     Pressure Ratio           Outlet Is. Enthalpy       In-Out MassFlow Diff (%)
                  1.06411              1.71281e+06                  11.9996

-------------------------------------------------------------------------


---------------------------- Turbine ------------------------------------
Turbine performance between boundaries inlet and outletrotor : 

     Total-Total Eff.(%)      Total-Static Eff.(%)      Entropy Generation(%)
                 -24.4983                 -12.6099                   32.258

     Pressure Ratio           Outlet Is. Enthalpy       In-Out MassFlow Diff (%)
                  1.06411              1.71281e+06                  11.9996

-------------------------------------------------------------------------


----------------------- Residual Evolution Summary ----------------------
log10[Maximum residual]: -2.07272.
Maximum residual point 7939, located at (0.03, 0.072355).
Maximum Omega 833530, maximum Strain Rate 834293.
-------------------------------------------------------------------------

 Iter    Time(s)      Res[Rho]     Res[kine]     Res[omega] TTEfficiency(%) Entropy Gen.(%)
  120   0.040547     -3.345827      0.172387       2.668593  -2.449833e+01   3.225796e+01
  121   0.040529     -3.338310      0.171587       2.668382  -2.414226e+00   2.680043e+01
  122   0.040467     -3.329525      0.168558       2.657229   2.548881e+00   2.677326e+01
  123   0.040447     -3.468693      0.170355       2.668433   5.579833e+00   2.674859e+01
  124   0.040432     -3.360771      0.169190       2.668928   6.523756e+00   2.673979e+01
  125   0.040433     -3.315301      0.168582       2.672661   6.815507e+00   2.674447e+01
  126   0.040416     -3.250683      0.167439       2.676205   6.832406e+00   2.675840e+01
  127   0.040400     -3.189700      0.165136       2.676721   6.724323e+00   2.677992e+01
  128   0.040383     -3.163197      0.161989       2.674082   6.582718e+00   2.680589e+01
  129   0.040365     -3.173834      0.159270       2.672380   6.495656e+00   2.683267e+01
  130   0.040347     -3.185306      0.156916       2.671977   6.485750e+00   2.685920e+01
  131   0.040329     -3.184713      0.154606       2.671879   6.544470e+00   2.688508e+01
  132   0.040312     -3.176619      0.152223       2.671603   6.660254e+00   2.690987e+01
  133   0.040295     -3.166777      0.149753       2.671143   6.826594e+00   2.693325e+01
  134   0.040278     -3.157152      0.147206       2.670505   7.036908e+00   2.695501e+01
  135   0.040261     -3.148398      0.144585       2.669647   7.283287e+00   2.697512e+01
  136   0.040245     -3.140737      0.141872       2.668518   7.556660e+00   2.699374e+01
  137   0.040229     -3.134242      0.139083       2.667085   7.847457e+00   2.701122e+01
  138   0.040212     -3.128934      0.136224       2.665321   8.146407e+00   2.702799e+01
  139   0.040197     -3.124817      0.133308       2.663197   8.445267e+00   2.704457e+01
  140   0.040181     -3.121886      0.130348       2.660674   8.407428e+00   2.716050e+01
  141   0.040166     -3.120127      0.127353       2.657732   2.097354e+01   2.320061e+01
  142   0.040115     -3.119528      0.122364       2.644728   2.425562e+01   2.317271e+01
  143   0.040100     -3.160797      0.123132       2.653104   2.645713e+01   2.309484e+01
  144   0.040086     -3.139132      0.120887       2.651758   2.727517e+01   2.309986e+01
  145   0.040074     -3.108897      0.117934       2.649035   2.764131e+01   2.312089e+01
  146   0.040062     -3.080303      0.113170       2.640745   2.784136e+01   2.314732e+01
  147   0.040048     -3.084847      0.108587       2.631760   2.800225e+01   2.317387e+01
  148   0.040034     -3.105782      0.104860       2.624034   2.816362e+01   2.319991e+01
  149   0.040021     -3.125275      0.101647       2.616901   2.834172e+01   2.322491e+01
  150   0.040011     -3.140009      0.098670       2.609746   2.854581e+01   2.324786e+01
  151   0.039998     -3.151802      0.095837       2.602396   2.878065e+01   2.313778e+01
  152   0.039985     -3.162172      0.093122       2.594832   2.904794e+01   2.320108e+01
  153   0.039972     -3.171780      0.090504       2.587060   2.934686e+01   2.324205e+01
  154   0.039960     -3.180810      0.087973       2.579089   2.967414e+01   2.326760e+01
  155   0.039947     -3.189390      0.085523       2.570964   3.002480e+01   2.328217e+01
  156   0.039935     -3.197453      0.083164       2.562731   3.039260e+01   2.328874e+01
  157   0.039923     -3.204935      0.080900       2.554421   3.077066e+01   2.328946e+01
  158   0.039911     -3.211785      0.078731       2.546074   3.115218e+01   2.328592e+01
  159   0.039899     -3.217978      0.076666       2.537736   3.153103e+01   2.327937e+01

---------------------- Local Time Stepping Summary ----------------------
MG level: 0 -> Min. DT: 6.11101e-07. Max. DT: 6.22565e-06. CFL: 26.2994.
-------------------------------------------------------------------------

------------------------- Turbomachinery Summary ------------------------


----------------------------- Blade 1 -----------------------------------
BC Inlet convergence monitoring marker inlet : 

     Inlet Total Enthalpy     Inlet Total Enthalpy BC     err(%)
              1.75496e+06              1.75518e+06                0.0124371

     Inlet Entropy            Inlet Entropy BC            err(%)
                  7022.93                  7022.94              0.000140309

     Inlet Absolute Angle     Inlet Absolute Angle BC     err(%)
               -0.0110963                        0                      inf

     Inlet TurbIntensity      Inlet TurbIntensity BC      err(%)
                 0.048289                     0.05                  3.42191

     Inlet Turb2LamRatio      Inlet Turb2LamRatio BC      err(%)
                  106.383                      100                  6.38282

Convergence monitoring for integral quantities between markers inlet and outlet : 

     Inlet Mass Flow          Outlet Mass Flow            err(%)
                  226.709                  249.997                  10.2723

     Inlet Total Rothalpy     Outlet Total Rothalpy       err(%)
              1.75496e+06              1.74385e+06                 0.633011

Blade performance between boundaries inlet and outlet : 

     Total Pressure Loss(%)   Kinetic Energy Loss(%)      Entropy Generation(%)
                  51.6404                  30.0067                  6.84167

     Total Inlet Enthalpy     Eulerian Work               Pressure Ratio
              1.75496e+06                  11109.1                 0.952463

     Inlet Entropy            Outlet Entropy             Outlet Is. Enthalpy
                  7022.93                   7029.1                  2.18307

Cinematic quantities between boundaries inlet and outlet : 

     Inlet Mach               Inlet Normal Mach            Inlet Tang. Mach
                 0.115232                 0.115232             -2.23166e-05

     Outlet Mach              Outlet Normal Mach           Outlet Tang. Mach
                 0.272841                 0.137702                -0.235543

     Inlet Flow Angle         Outlet flow Angle  
               -0.0110963                 -59.6887

     Inlet Abs Flow Angle     Outlet Abs Flow Angle  
               -0.0110963                 -59.6887

-------------------------------------------------------------------------


---------- Mixing-Plane Interface between Blade 1 and Blade 2 -----------

Convergence monitoring for the outlet  outlet and the inlet  inletrotor : 

     Outlet Density           Inlet Density               err(%)
                  2.55365                  2.55202                0.0636946

     Outlet Pressure          Inlet Pressure              err(%)
                   998225                   997731                0.0495097

     Outlet Normal Velocity   Inlet Normal Velocity       err(%)
                  97.8982                  98.8345                 0.947332

     Outlet Tang. Velocity    Inlet Tang. Velocity        err(%)
                 -167.457                 -166.825                 0.378613

     Outlet Entropy           Inlet Entropy               err(%)
                   7029.1                  7029.43               0.00475599

     Outlet TurbIntensity     Inlet TurbIntensity         err(%)
                0.0248348                0.0245266                  1.25636

     Outlet Turb2LamRatio     Inlet Turb2LamRatio         err(%)
                  138.804                  136.452                  1.72369

-------------------------------------------------------------------------


----------------------------- Blade 2 -----------------------------------
BC outlet convergence monitoring  marker outletrotor : 

     Outlet Pressure          Outlet Pressure BC          err(%)
                   942281                   943200                0.0974015

Convergence monitoring for integral quantities between markers inletrotor and outletrotor : 

     Inlet Mass Flow          Outlet Mass Flow            err(%)
                  252.228                  298.841                  18.4808

     Inlet Total Rothalpy     Outlet Total Rothalpy       err(%)
              1.69442e+06               1.6959e+06                0.0870423

Blade performance between boundaries inletrotor and outletrotor : 

     Total Pressure Loss(%)   Kinetic Energy Loss(%)      Entropy Generation(%)
                 -197.132                  51.9095                  16.4291

     Total Inlet Enthalpy     Eulerian Work               Pressure Ratio
              1.74408e+06                  2083.16                 0.946546

     Inlet Entropy            Outlet Entropy             Outlet Is. Enthalpy
                  7029.43                  7044.25                  13.0384

Cinematic quantities between boundaries inletrotor and outletrotor : 

     Inlet Mach               Inlet Normal Mach            Inlet Tang. Mach
                 0.230628                  0.13901                 0.184026

     Outlet Mach              Outlet Normal Mach           Outlet Tang. Mach
                 0.266017                 0.174243                 0.201009

     Inlet Flow Angle         Outlet flow Angle  
                  52.9333                  49.0799

     Inlet Abs Flow Angle     Outlet Abs Flow Angle  
                 -59.3557                 -51.3668

-------------------------------------------------------------------------


----------------------------- Stage 1 -----------------------------------
Stage performance between boundaries inlet and outletrotor : 

     Total-Total Eff.(%)      Total-Static Eff.(%)      Entropy Generation(%)
                  31.9022                  21.5012                  23.2707

     Pressure Ratio           Outlet Is. Enthalpy       In-Out MassFlow Diff (%)
                  1.00901              1.69468e+06                  31.8171

-------------------------------------------------------------------------


---------------------------- Turbine ------------------------------------
Turbine performance between boundaries inlet and outletrotor : 

     Total-Total Eff.(%)      Total-Static Eff.(%)      Entropy Generation(%)
                  31.9022                  21.5012                  23.2707

     Pressure Ratio           Outlet Is. Enthalpy       In-Out MassFlow Diff (%)
                  1.00901              1.69468e+06                  31.8171

-------------------------------------------------------------------------


----------------------- Residual Evolution Summary ----------------------
log10[Maximum residual]: -1.98611.
Maximum residual point 11035, located at (0.28, -0.1).
Maximum Omega 891688, maximum Strain Rate 892467.
-------------------------------------------------------------------------

 Iter    Time(s)      Res[Rho]     Res[kine]     Res[omega] TTEfficiency(%) Entropy Gen.(%)
  160   0.039887     -3.223528      0.074698       2.529460   3.190218e+01   2.327073e+01
  161   0.039877     -3.228488      0.072823       2.521276   3.931867e+01   2.016563e+01
  162   0.039834     -3.232941      0.068585       2.508503   4.147705e+01   2.014989e+01
  163   0.039823     -3.294395      0.070052       2.509582   4.280711e+01   2.013853e+01
  164   0.039812     -3.270645      0.068845       2.502719   4.346068e+01   2.012513e+01
  165   0.039803     -3.247488      0.068034       2.496269   4.387911e+01   2.011243e+01
  166   0.039796     -3.213342      0.066806       2.488427   4.421631e+01   2.019887e+01
  167   0.039805     -3.185510      0.064647       2.478832   4.451659e+01   2.018145e+01
  168   0.039800     -3.182806      0.062191       2.469320   4.478975e+01   2.016282e+01
  169   0.039792     -3.202184      0.060161       2.461479   4.504895e+01   2.014367e+01
  170   0.039782     -3.223121      0.058509       2.455040   4.530775e+01   2.002340e+01
  171   0.039772     -3.236950      0.057013       2.449329   4.557311e+01   2.003968e+01
  172   0.039761     -3.244810      0.055560       2.443982   4.584570e+01   2.003898e+01
  173   0.039751     -3.249906      0.054132       2.438930   4.612308e+01   2.002755e+01
  174   0.039741     -3.254206      0.052748       2.434188   4.640198e+01   2.000935e+01
  175   0.039731     -3.258256      0.051419       2.429785   4.667897e+01   1.998698e+01
  176   0.039723     -3.262122      0.050128       2.425737   4.679275e+01   2.002165e+01
  177   0.039714     -3.265819      0.048900       2.422049   4.706079e+01   1.999440e+01
  178   0.039704     -3.269385      0.047741       2.418762   4.731688e+01   1.996705e+01
  179   0.039694     -3.272528      0.046666       2.415938   4.756080e+01   1.994015e+01
  180   0.039685     -3.274602      0.045634       2.413445   4.779065e+01   1.982189e+01
  181   0.039676     -3.276394      0.044631       2.411274   5.239556e+01   1.755533e+01
  182   0.039638     -3.278251      0.039960       2.397290   5.377922e+01   1.752352e+01
  183   0.039629     -3.354466      0.043243       2.408749   5.471908e+01   1.748477e+01
  184   0.039636     -3.311299      0.042637       2.408858   5.517519e+01   1.744746e+01
  185   0.039628     -3.285364      0.043056       2.412437   5.545878e+01   1.741295e+01
  186   0.039621     -3.246025      0.043191       2.415722   5.567381e+01   1.737872e+01
  187   0.039614     -3.211169      0.041301       2.412300   5.585030e+01   1.734497e+01
  188   0.039607     -3.219741      0.038921       2.407012   5.600288e+01   1.731322e+01
  189   0.039598     -3.252195      0.037236       2.404209   5.614349e+01   1.728336e+01
  190   0.039590     -3.281416      0.036101       2.403591   5.628228e+01   1.725422e+01
  191   0.039581     -3.300028      0.035198       2.404007   5.642611e+01   1.722465e+01
  192   0.039573     -3.310535      0.034283       2.404470   5.657721e+01   1.712185e+01
  193   0.039566     -3.318185      0.033375       2.404967   5.673587e+01   1.711848e+01
  194   0.039557     -3.324902      0.032481       2.405534   5.677921e+01   1.715057e+01
  195   0.039549     -3.331289      0.031642       2.406211   5.695327e+01   1.712499e+01
  196   0.039541     -3.337591      0.030876       2.407026   5.712957e+01   1.709441e+01
  197   0.039533     -3.343872      0.030193       2.408002   5.730591e+01   1.699262e+01
  198   0.039525     -3.348521      0.029591       2.409141   5.748001e+01   1.695852e+01
  199   0.039517     -3.355780      0.029081       2.410440   5.764990e+01   1.692373e+01

---------------------- Local Time Stepping Summary ----------------------
MG level: 0 -> Min. DT: 5.83721e-07. Max. DT: 5.95776e-06. CFL: 24.985.
-------------------------------------------------------------------------

------------------------- Turbomachinery Summary ------------------------


----------------------------- Blade 1 -----------------------------------
BC Inlet convergence monitoring marker inlet : 

     Inlet Total Enthalpy     Inlet Total Enthalpy BC     err(%)
                1.755e+06              1.75518e+06                0.0102504

     Inlet Entropy            Inlet Entropy BC            err(%)
                  7022.92                  7022.94              0.000216564

     Inlet Absolute Angle     Inlet Absolute Angle BC     err(%)
               -0.0100764                        0                      inf

     Inlet TurbIntensity      Inlet TurbIntensity BC      err(%)
                0.0483969                     0.05                  3.20622

     Inlet Turb2LamRatio      Inlet Turb2LamRatio BC      err(%)
                  106.479                      100                  6.47867

Convergence monitoring for integral quantities between markers inlet and outlet : 

     Inlet Mass Flow          Outlet Mass Flow            err(%)
                   267.77                  283.711                  5.95324

     Inlet Total Rothalpy     Outlet Total Rothalpy       err(%)
                1.755e+06              1.73688e+06                  1.03247

Blade performance between boundaries inlet and outlet : 

     Total Pressure Loss(%)   Kinetic Energy Loss(%)      Entropy Generation(%)
                  53.7167                  26.2462                  5.71644

     Total Inlet Enthalpy     Eulerian Work               Pressure Ratio
                1.755e+06                  18119.8                 0.933866

     Inlet Entropy            Outlet Entropy             Outlet Is. Enthalpy
                  7022.92                  7029.67                  1.87506

Cinematic quantities between boundaries inlet and outlet : 

     Inlet Mach               Inlet Normal Mach            Inlet Tang. Mach
                 0.136506                 0.136506             -2.40067e-05

     Outlet Mach              Outlet Normal Mach           Outlet Tang. Mach
                  0.31318                  0.16119                -0.268513

     Inlet Flow Angle         Outlet flow Angle  
               -0.0100764                 -59.0234

     Inlet Abs Flow Angle     Outlet Abs Flow Angle  
               -0.0100764                 -59.0234

-------------------------------------------------------------------------


---------- Mixing-Plane Interface between Blade 1 and Blade 2 -----------

Convergence monitoring for the outlet  outlet and the inlet  inletrotor : 

     Outlet Density           Inlet Density               err(%)
                  2.48495                  2.48297                 0.079671

     Outlet Pressure          Inlet Pressure              err(%)
                   964185                   963362                0.0853994

     Outlet Normal Velocity   Inlet Normal Velocity       err(%)
                  114.172                  114.642                 0.409845

     Outlet Tang. Velocity    Inlet Tang. Velocity        err(%)
                 -190.189                 -187.577                  1.39267

     Outlet Entropy           Inlet Entropy               err(%)
                  7029.67                  7029.85               0.00255078

     Outlet TurbIntensity     Inlet TurbIntensity         err(%)
                0.0252277                0.0250013                  0.90528

     Outlet Turb2LamRatio     Inlet Turb2LamRatio         err(%)
                  178.242                  174.005                  2.43539

-------------------------------------------------------------------------


----------------------------- Blade 2 -----------------------------------
BC outlet convergence monitoring  marker outletrotor : 

     Outlet Pressure          Outlet Pressure BC          err(%)
                   897847                   898400                0.0615218

Convergence monitoring for integral quantities between markers inletrotor and outletrotor : 

     Inlet Mass Flow          Outlet Mass Flow            err(%)
                  284.652                  305.162                  7.20543

     Inlet Total Rothalpy     Outlet Total Rothalpy       err(%)
              1.68051e+06               1.6797e+06                0.0480128

Blade performance between boundaries inletrotor and outletrotor : 

     Total Pressure Loss(%)   Kinetic Energy Loss(%)      Entropy Generation(%)
                  -376.16                  43.5827                  11.1724

     Total Inlet Enthalpy     Eulerian Work               Pressure Ratio
              1.73634e+06                  16717.8                  0.91676

     Inlet Entropy            Outlet Entropy             Outlet Is. Enthalpy
                  7029.85                  7043.04                  2.54727

Cinematic quantities between boundaries inletrotor and outletrotor : 

     Inlet Mach               Inlet Normal Mach            Inlet Tang. Mach
                 0.224403                 0.161858                  0.15543

     Outlet Mach              Outlet Normal Mach           Outlet Tang. Mach
                 0.296799                  0.18563                 0.231584

     Inlet Flow Angle         Outlet flow Angle  
                  43.8394                  51.2855

     Inlet Abs Flow Angle     Outlet Abs Flow Angle  
                  -58.568                 -45.6558

-------------------------------------------------------------------------


----------------------------- Stage 1 -----------------------------------
Stage performance between boundaries inlet and outletrotor : 

[...]

     Inlet TurbIntensity      Inlet TurbIntensity BC      err(%)
                0.0483478                     0.05                  3.30436

     Inlet Turb2LamRatio      Inlet Turb2LamRatio BC      err(%)
                  106.395                      100                  6.39454

Convergence monitoring for integral quantities between markers inlet and outlet : 

     Inlet Mass Flow          Outlet Mass Flow            err(%)
                  422.282                  422.218                0.0152859

     Inlet Total Rothalpy     Outlet Total Rothalpy       err(%)
              1.75511e+06              1.75511e+06              0.000245971

Blade performance between boundaries inlet and outlet : 

     Total Pressure Loss(%)   Kinetic Energy Loss(%)      Entropy Generation(%)
                  19.8323                  15.6686                  5.94461

     Total Inlet Enthalpy     Eulerian Work               Pressure Ratio
              1.75511e+06                  4.31707                 0.924839

     Inlet Entropy            Outlet Entropy             Outlet Is. Enthalpy
                  7022.89                   7046.2                  8975.44

Cinematic quantities between boundaries inlet and outlet : 

     Inlet Mach               Inlet Normal Mach            Inlet Tang. Mach
                 0.218818                 0.218818             -1.70728e-05

     Outlet Mach              Outlet Normal Mach           Outlet Tang. Mach
                 0.802915                 0.327669                -0.733012

     Inlet Flow Angle         Outlet flow Angle  
              -0.00447037                 -65.9145

     Inlet Abs Flow Angle     Outlet Abs Flow Angle  
              -0.00447037                 -65.9145

-------------------------------------------------------------------------


---------- Mixing-Plane Interface between Blade 1 and Blade 2 -----------

Convergence monitoring for the outlet  outlet and the inlet  inletrotor : 

     Outlet Density           Inlet Density               err(%)
                   1.8798                  1.87986                0.0033974

     Outlet Pressure          Inlet Pressure              err(%)
                   683112                   683152               0.00592059

     Outlet Normal Velocity   Inlet Normal Velocity       err(%)
                  224.608                  224.517                0.0404788

     Outlet Tang. Velocity    Inlet Tang. Velocity        err(%)
                 -502.458                 -502.181                0.0551393

     Outlet Entropy           Inlet Entropy               err(%)
                   7046.2                  7046.22              0.000220785

     Outlet TurbIntensity     Inlet TurbIntensity         err(%)
                0.0232619                0.0231621                 0.430892

     Outlet Turb2LamRatio     Inlet Turb2LamRatio         err(%)
                  368.434                  368.281                0.0414894

-------------------------------------------------------------------------


----------------------------- Blade 2 -----------------------------------
BC outlet convergence monitoring  marker outletrotor : 

     Outlet Pressure          Outlet Pressure BC          err(%)
                   539880                   540000                0.0221423

Convergence monitoring for integral quantities between markers inletrotor and outletrotor : 

     Inlet Mass Flow          Outlet Mass Flow            err(%)
                  422.061                  422.017                0.0104451

     Inlet Total Rothalpy     Outlet Total Rothalpy       err(%)
              1.60551e+06              1.60429e+06                0.0759194

Blade performance between boundaries inletrotor and outletrotor : 

     Total Pressure Loss(%)   Kinetic Energy Loss(%)      Entropy Generation(%)
                  27.2504                  15.3192                  4.30939

     Total Inlet Enthalpy     Eulerian Work               Pressure Ratio
              1.75499e+06                   174538                 0.595173

     Inlet Entropy            Outlet Entropy             Outlet Is. Enthalpy
                  7046.22                  7063.11                   1.3855

Cinematic quantities between boundaries inletrotor and outletrotor : 

     Inlet Mach               Inlet Normal Mach            Inlet Tang. Mach
                 0.443049                 0.327532                -0.298354

     Outlet Mach              Outlet Normal Mach           Outlet Tang. Mach
                 0.693646                 0.406101                 0.562341

     Inlet Flow Angle         Outlet flow Angle  
                 -42.3308                  54.1646

     Inlet Abs Flow Angle     Outlet Abs Flow Angle  
                 -65.9114                  16.3598

-------------------------------------------------------------------------


----------------------------- Stage 1 -----------------------------------
Stage performance between boundaries inlet and outletrotor : 

     Total-Total Eff.(%)      Total-Static Eff.(%)      Entropy Generation(%)
                  79.0336                   66.815                   10.254

     Pressure Ratio           Outlet Is. Enthalpy       In-Out MassFlow Diff (%)
                   1.1702               1.4937e+06                0.0627862

-------------------------------------------------------------------------


---------------------------- Turbine ------------------------------------
Turbine performance between boundaries inlet and outletrotor : 

     Total-Total Eff.(%)      Total-Static Eff.(%)      Entropy Generation(%)
                  79.0336                   66.815                   10.254

     Pressure Ratio           Outlet Is. Enthalpy       In-Out MassFlow Diff (%)
                   1.1702               1.4937e+06                0.0627862

-------------------------------------------------------------------------


----------------------- Residual Evolution Summary ----------------------
log10[Maximum residual]: -13.6365.
Maximum residual point 8026, located at (0.28, 0.022949).
Maximum Omega 1.68558e+06, maximum Strain Rate 1.69025e+06.
-------------------------------------------------------------------------

 Iter    Time(s)      Res[Rho]     Res[kine]     Res[omega] TTEfficiency(%) Entropy Gen.(%)
 4320   0.039661    -14.787209    -10.404873      -8.485354   7.903364e+01   1.025400e+01
 4321   0.039661    -14.635795    -10.408018      -8.489384   7.903364e+01   1.025400e+01
 4322   0.039660    -14.692206    -10.410681      -8.490876   7.903364e+01   1.025400e+01
 4323   0.039660    -14.587503    -10.413319      -8.491555   7.903364e+01   1.025400e+01
 4324   0.039660    -14.776173    -10.416266      -8.493930   7.903364e+01   1.025400e+01
 4325   0.039659    -14.753686    -10.419556      -8.498873   7.903364e+01   1.025400e+01
 4326   0.039659    -14.693652    -10.422409      -8.501197   7.903364e+01   1.025400e+01
 4327   0.039659    -14.644132    -10.425266      -8.502358   7.903364e+01   1.025400e+01
 4328   0.039659    -14.753548    -10.428122      -8.504263   7.903364e+01   1.025400e+01
 4329   0.039658    -14.728610    -10.431513      -8.508888   7.903364e+01   1.025400e+01
 4330   0.039658    -14.789412    -10.434483      -8.511411   7.903364e+01   1.025400e+01
 4331   0.039658    -14.769074    -10.438104      -8.517929   7.903364e+01   1.025400e+01
 4332   0.039657    -14.641950    -10.441066      -8.521080   7.903364e+01   1.025400e+01
 4333   0.039657    -14.759049    -10.444034      -8.524268   7.903364e+01   1.025400e+01
 4334   0.039657    -14.794042    -10.446878      -8.526091   7.903364e+01   1.025400e+01
 4335   0.039656    -14.741583    -10.450166      -8.530766   7.903364e+01   1.025400e+01
 4336   0.039656    -14.804702    -10.452644      -8.530927   7.903364e+01   1.025400e+01
 4337   0.039656    -14.805427    -10.456172      -8.537418   7.903364e+01   1.025400e+01
 4338   0.039655    -14.804147    -10.459326      -8.541079   7.903364e+01   1.025400e+01
 4339   0.039655    -14.790705    -10.462274      -8.543731   7.903364e+01   1.025400e+01
 4340   0.039655    -14.628429    -10.465077      -8.544798   7.903364e+01   1.025400e+01
 4341   0.039655    -14.630593    -10.467991      -8.547885   7.903364e+01   1.025400e+01
 4342   0.039654    -14.663026    -10.470907      -8.550439   7.903364e+01   1.025400e+01
 4343   0.039654    -14.797817    -10.473932      -8.553075   7.903364e+01   1.025400e+01
 4344   0.039654    -14.788233    -10.476878      -8.556131   7.903364e+01   1.025400e+01
 4345   0.039653    -14.826237    -10.479879      -8.557615   7.903364e+01   1.025400e+01
 4346   0.039653    -14.544335    -10.483152      -8.562470   7.903364e+01   1.025400e+01
 4347   0.039653    -14.744028    -10.485867      -8.563723   7.903364e+01   1.025400e+01
 4348   0.039652    -14.829473    -10.488704      -8.565008   7.903364e+01   1.025400e+01
 4349   0.039652    -14.820225    -10.492425      -8.571629   7.903364e+01   1.025400e+01
 4350   0.039652    -14.856198    -10.495496      -8.575444   7.903364e+01   1.025400e+01
 4351   0.039652    -14.664278    -10.498922      -8.580908   7.903364e+01   1.025400e+01
 4352   0.039651    -14.847792    -10.501721      -8.583788   7.903364e+01   1.025400e+01
 4353   0.039651    -14.846259    -10.504600      -8.587291   7.903364e+01   1.025400e+01
 4354   0.039651    -14.737146    -10.507429      -8.590246   7.903364e+01   1.025400e+01
 4355   0.039650    -14.692619    -10.510345      -8.592376   7.903364e+01   1.025400e+01
 4356   0.039650    -14.726763    -10.513241      -8.595213   7.903364e+01   1.025400e+01
 4357   0.039650    -14.826728    -10.516192      -8.597555   7.903364e+01   1.025400e+01
 4358   0.039649    -14.795093    -10.519095      -8.599411   7.903364e+01   1.025400e+01
 4359   0.039649    -14.801078    -10.521885      -8.600756   7.903364e+01   1.025400e+01

---------------------- Local Time Stepping Summary ----------------------
MG level: 0 -> Min. DT: 7.17138e-07. Max. DT: 6.48288e-06. CFL: 31.1858.
-------------------------------------------------------------------------

------------------------- Turbomachinery Summary ------------------------


----------------------------- Blade 1 -----------------------------------
BC Inlet convergence monitoring marker inlet : 

     Inlet Total Enthalpy     Inlet Total Enthalpy BC     err(%)
              1.75511e+06              1.75518e+06               0.00366164

     Inlet Entropy            Inlet Entropy BC            err(%)
                  7022.89                  7022.94              0.000623434

     Inlet Absolute Angle     Inlet Absolute Angle BC     err(%)
              -0.00447037                        0                      inf

     Inlet TurbIntensity      Inlet TurbIntensity BC      err(%)
                0.0483478                     0.05                  3.30436

     Inlet Turb2LamRatio      Inlet Turb2LamRatio BC      err(%)
                  106.395                      100                  6.39454

Convergence monitoring for integral quantities between markers inlet and outlet : 

     Inlet Mass Flow          Outlet Mass Flow            err(%)
                  422.282                  422.218                0.0152859

     Inlet Total Rothalpy     Outlet Total Rothalpy       err(%)
              1.75511e+06              1.75511e+06              0.000245971

Blade performance between boundaries inlet and outlet : 

     Total Pressure Loss(%)   Kinetic Energy Loss(%)      Entropy Generation(%)
                  19.8323                  15.6686                  5.94461

     Total Inlet Enthalpy     Eulerian Work               Pressure Ratio
              1.75511e+06                  4.31707                 0.924839

     Inlet Entropy            Outlet Entropy             Outlet Is. Enthalpy
                  7022.89                   7046.2                  8975.44

Cinematic quantities between boundaries inlet and outlet : 

     Inlet Mach               Inlet Normal Mach            Inlet Tang. Mach
                 0.218818                 0.218818             -1.70728e-05

     Outlet Mach              Outlet Normal Mach           Outlet Tang. Mach
                 0.802915                 0.327669                -0.733012

     Inlet Flow Angle         Outlet flow Angle  
              -0.00447037                 -65.9145

     Inlet Abs Flow Angle     Outlet Abs Flow Angle  
              -0.00447037                 -65.9145

-------------------------------------------------------------------------


---------- Mixing-Plane Interface between Blade 1 and Blade 2 -----------

Convergence monitoring for the outlet  outlet and the inlet  inletrotor : 

     Outlet Density           Inlet Density               err(%)
                   1.8798                  1.87986                0.0033974

     Outlet Pressure          Inlet Pressure              err(%)
                   683112                   683152               0.00592059

     Outlet Normal Velocity   Inlet Normal Velocity       err(%)
                  224.608                  224.517                0.0404788

     Outlet Tang. Velocity    Inlet Tang. Velocity        err(%)
                 -502.458                 -502.181                0.0551393

     Outlet Entropy           Inlet Entropy               err(%)
                   7046.2                  7046.22              0.000220785

     Outlet TurbIntensity     Inlet TurbIntensity         err(%)
                0.0232619                0.0231621                 0.430892

     Outlet Turb2LamRatio     Inlet Turb2LamRatio         err(%)
                  368.434                  368.281                0.0414894

-------------------------------------------------------------------------


----------------------------- Blade 2 -----------------------------------
BC outlet convergence monitoring  marker outletrotor : 

     Outlet Pressure          Outlet Pressure BC          err(%)
                   539880                   540000                0.0221423

Convergence monitoring for integral quantities between markers inletrotor and outletrotor : 

     Inlet Mass Flow          Outlet Mass Flow            err(%)
                  422.061                  422.017                0.0104451

     Inlet Total Rothalpy     Outlet Total Rothalpy       err(%)
              1.60551e+06              1.60429e+06                0.0759194

Blade performance between boundaries inletrotor and outletrotor : 

     Total Pressure Loss(%)   Kinetic Energy Loss(%)      Entropy Generation(%)
                  27.2504                  15.3192                  4.30939

     Total Inlet Enthalpy     Eulerian Work               Pressure Ratio
              1.75499e+06                   174538                 0.595173

     Inlet Entropy            Outlet Entropy             Outlet Is. Enthalpy
                  7046.22                  7063.11                   1.3855

Cinematic quantities between boundaries inletrotor and outletrotor : 

     Inlet Mach               Inlet Normal Mach            Inlet Tang. Mach
                 0.443049                 0.327532                -0.298354

     Outlet Mach              Outlet Normal Mach           Outlet Tang. Mach
                 0.693646                 0.406101                 0.562341

     Inlet Flow Angle         Outlet flow Angle  
                 -42.3308                  54.1646

     Inlet Abs Flow Angle     Outlet Abs Flow Angle  
                 -65.9114                  16.3598

-------------------------------------------------------------------------


----------------------------- Stage 1 -----------------------------------
Stage performance between boundaries inlet and outletrotor : 

     Total-Total Eff.(%)      Total-Static Eff.(%)      Entropy Generation(%)
                  79.0336                   66.815                   10.254

     Pressure Ratio           Outlet Is. Enthalpy       In-Out MassFlow Diff (%)
                   1.1702               1.4937e+06                0.0627862

-------------------------------------------------------------------------


---------------------------- Turbine ------------------------------------
Turbine performance between boundaries inlet and outletrotor : 

     Total-Total Eff.(%)      Total-Static Eff.(%)      Entropy Generation(%)
                  79.0336                   66.815                   10.254

     Pressure Ratio           Outlet Is. Enthalpy       In-Out MassFlow Diff (%)
                   1.1702               1.4937e+06                0.0627862

-------------------------------------------------------------------------


----------------------- Residual Evolution Summary ----------------------
log10[Maximum residual]: -13.7091.
Maximum residual point 8026, located at (0.28, 0.022949).
Maximum Omega 1.68558e+06, maximum Strain Rate 1.69025e+06.
-------------------------------------------------------------------------

 Iter    Time(s)      Res[Rho]     Res[kine]     Res[omega] TTEfficiency(%) Entropy Gen.(%)
 4360   0.039649    -14.871316    -10.524902      -8.601596   7.903364e+01   1.025400e+01
 4361   0.039649    -14.778481    -10.528602      -8.608526   7.903364e+01   1.025400e+01
 4362   0.039648    -14.785131    -10.531476      -8.611296   7.903364e+01   1.025400e+01
 4363   0.039648    -14.862010    -10.534241      -8.612354   7.903364e+01   1.025400e+01
 4364   0.039648    -14.886161    -10.537794      -8.617405   7.903364e+01   1.025400e+01
 4365   0.039647    -14.812233    -10.540922      -8.621595   7.903364e+01   1.025400e+01
 4366   0.039647    -14.854342    -10.543522      -8.622863   7.903364e+01   1.025400e+01
 4367   0.039647    -14.862732    -10.546579      -8.625029   7.903364e+01   1.025400e+01
 4368   0.039646    -14.589114    -10.549729      -8.628135   7.903364e+01   1.025400e+01
 4369   0.039646    -14.659702    -10.552644      -8.629960   7.903364e+01   1.025400e+01
 4370   0.039646    -14.896385    -10.555648      -8.631902   7.903364e+01   1.025400e+01
 4371   0.039646    -14.657027    -10.559295      -8.639032   7.903364e+01   1.025400e+01
 4372   0.039645    -14.870743    -10.562269      -8.642204   7.903364e+01   1.025400e+01
 4373   0.039645    -14.845768    -10.565356      -8.645142   7.903364e+01   1.025400e+01
 4374   0.039645    -14.803563    -10.568250      -8.645983   7.903364e+01   1.025400e+01
 4375   0.039644    -14.631071    -10.571257      -8.647130   7.903364e+01   1.025400e+01
 4376   0.039644    -14.808068    -10.574632      -8.650844   7.903364e+01   1.025400e+01
 4377   0.039644    -14.837025    -10.577755      -8.653618   7.903364e+01   1.025400e+01
 4378   0.039643    -14.919664    -10.580800      -8.655559   7.903364e+01   1.025400e+01

-------------------------- File Output Summary --------------------------
Writing comma-separated values (CSV) surface files.
Loading solution output data locally on each rank.
Sorting output data across all ranks.
Writing ASCII SU2 native restart file.

Writing comma-separated values (CSV) surface files.
Loading solution output data locally on each rank.
Sorting output data across all ranks.
Writing ASCII SU2 native restart file.
-------------------------------------------------------------------------


------------------------- Solver Postprocessing -------------------------
Deleted CNumerics container.
Deleted CIntegration container.
Deleted CSolver container.
Deleted CIteration container.
Deleted CInterpolator container.
Deleted CTransfer container.
Deleted CGeometry container.
Deleted CFreeFormDefBox class.
Deleted CSurfaceMovement class.
Deleted CVolumetricMovement class.
Deleted CConfig container.
Deleted COutput class.
-------------------------------------------------------------------------

Completed in 174.472607 seconds on 12 cores.

------------------------- Exit Success (SU2_CFD) ------------------------

