
-------------------------------------------------------------------------
|    ___ _   _ ___                                                      |
|   / __| | | |_  )   Release 5.0.0  "Raven"                            |
|   \__ \ |_| |/ /                                                      |
|   |___/\___//___|   Suite (Computational Fluid Dynamics Code)         |
|                                                                       |
-------------------------------------------------------------------------
| SU2 Original Developers: Dr. Francisco D. Palacios.                   |
|                          Dr. Thomas D. Economon.                      |
-------------------------------------------------------------------------
| SU2 Developers:                                                       |
| - Prof. Juan J. Alonso's group at Stanford University.                |
| - Prof. Piero Colonna's group at Delft University of Technology.      |
| - Prof. Nicolas R. Gauger's group at Kaiserslautern U. of Technology. |
| - Prof. Alberto Guardone's group at Polytechnic University of Milan.  |
| - Prof. Rafael Palacios' group at Imperial College London.            |
| - Prof. Edwin van der Weide's group at the University of Twente.      |
| - Prof. Vincent Terrapon's group at the University of Liege.          |
-------------------------------------------------------------------------
| Copyright (C) 2012-2017 SU2, the open-source CFD code.                |
|                                                                       |
| SU2 is free software; you can redistribute it and/or                  |
| modify it under the terms of the GNU Lesser General Public            |
| License as published by the Free Software Foundation; either          |
| version 2.1 of the License, or (at your option) any later version.    |
|                                                                       |
| SU2 is distributed in the hope that it will be useful,                |
| but WITHOUT ANY WARRANTY; without even the implied warranty of        |
| MERCHANTABILITY or FITNESS FOR A PARTICULAR PURPOSE. See the GNU      |
| Lesser General Public License for more details.                       |
|                                                                       |
| You should have received a copy of the GNU Lesser General Public      |
| License along with SU2. If not, see <http://www.gnu.org/licenses/>.   |
-------------------------------------------------------------------------

------------------------ Physical Case Definition -----------------------
Discrete Adjoint equations using Algorithmic Differentiation 
based on the physical case: Compressible RANS equations.
Turbulence model: Menter's SST
Mach number: 0.2.
Angle of attack (AoA): 0 deg, and angle of sideslip (AoS): 0 deg.
Performing a dynamic mesh simulation: No restart solution, use the values at infinity (freestream).
Dimensional simulation.
The reference area is 1 m^2.
The semi-span length area is 1 m.
The reference length is 1 m.
Surface(s) where the force coefficients are evaluated and 
their reference origin for moment computation: 
   - blade (0, 0, 0).
   - bladerotor (0, 0, 0) m.
Surface(s) where the objective function is evaluated: blade, bladerotor.
Surface(s) plotted in the output file: blade, bladerotor.
Surface(s) to be analyzed in detail: blade, bladerotor, wall1, inlet, outlet, wall2, wall1rotor, wall2rotor, inletrotor, outletrotor.
Surface(s) affected by the design variables: blade.
Input mesh file name: turbine.su2

----------------------- Design problem definition -----------------------

---------------------- Space Numerical Integration ----------------------
Roe (with entropy fix = 0.01) solver for the flow inviscid terms.
First order integration in space.
Scalar upwind solver for the turbulence model.
First order integration in space.
Average of gradients with correction (viscous flow terms).
Average of gradients with correction (viscous turbulence terms).
Gradient Computation using weighted Least-Squares method.

---------------------- Time Numerical Integration -----------------------
Local time stepping (steady state simulation).
Euler implicit method for the flow equations.
FGMRES is used for solving the linear system.
Using a LU-SGS preconditioning.
Convergence criteria of the linear solver: 0.0001.
Max number of linear iterations: 10.
CFL adaptation. Factor down: 1.3, factor up: 1.2,
                lower limit: 10, upper limit: 40.
Courant-Friedrichs-Lewy number:        5
Euler implicit time integration for the turbulence model.

------------------------- Convergence Criteria --------------------------
Maximum number of iterations: 10000000.
Reduce the adjoint density residual 10 orders of magnitude.
The minimum value for the adjoint density residual is 10^(-10).

-------------------------- Output Information ---------------------------
Writing a flow solution every 1000 iterations.
Writing the convergence history every 1 iterations.
The output file format is Paraview ASCII (.vtk).
Convergence history file name: history.
Forces breakdown file name: forces_breakdown.dat.
Adjoint solution file name: restart_adj.dat.
Restart adjoint file name: restart_adj.dat.
Adjoint variables file name: adjoint.
Surface adjoint coefficients file name: surface_adjoint.

------------------- Config File Boundary Information --------------------
Periodic boundary marker(s): wall1, wall1rotor, wall2, wall2rotor.
Giles boundary marker(s): inlet, outlet, inletrotor, outletrotor.
MixingPlane boundary marker(s): outlet, inletrotor.
Constant heat flux wall boundary marker(s): blade, bladerotor.

---------------------- Read Grid File Information -----------------------
Reading zone 1 points:
Two dimensional problem.
11265 points and 92 ghost points before parallel partitioning.
Performing linear partitioning of the grid nodes.
Reading zone 1 elements:
14602 interior elements before parallel partitioning.
Calling the partitioning functions.
Building the graph adjacency structure.
Reading zone 1 elements:
Distributing elements across all ranks.
Reading zone 1 markers:
7 surface markers.
21 boundary elements in index 0 (Marker = inlet).
21 boundary elements in index 1 (Marker = outlet).
40 boundary elements in index 2 (Marker = wall1).
40 boundary elements in index 3 (Marker = wall2).
266 boundary elements in index 4 (Marker = blade).
2 periodic transformations.
Calling ParMETIS...
Finished partitioning using ParMETIS (791 edge cuts).
Communicating partition data and creating halo layers.
15392 interior elements including halo cells. 
7123 triangles.
8269 quadrilaterals.
12726 vertices including ghost points. 
Establishing MPI communication patterns.

---------------------- Read Grid File Information -----------------------
Reading zone 2 points:
Two dimensional problem.
14004 points and 109 ghost points before parallel partitioning.
Performing linear partitioning of the grid nodes.
Reading zone 2 elements:
18337 interior elements before parallel partitioning.
Calling the partitioning functions.
Building the graph adjacency structure.
Reading zone 2 elements:
Distributing elements across all ranks.
Reading zone 2 markers:
7 surface markers.
31 boundary elements in index 0 (Marker = inletrotor).
31 boundary elements in index 1 (Marker = outletrotor).
50 boundary elements in index 2 (Marker = wall1rotor).
50 boundary elements in index 3 (Marker = wall2rotor).
324 boundary elements in index 4 (Marker = bladerotor).
2 periodic transformations.
Calling ParMETIS...
Finished partitioning using ParMETIS (778 edge cuts).
Communicating partition data and creating halo layers.
19113 interior elements including halo cells. 
9155 triangles.
9958 quadrilaterals.
15475 vertices including ghost points. 
Establishing MPI communication patterns.

------------------------- Geometry Preprocessing ------------------------
Setting point connectivity.
Renumbering points (Reverse Cuthill McKee Ordering).
Recomputing point connectivity.
Setting element connectivity.
Checking the numerical grid orientation.
Identifying edges and vertices.
Computing centers of gravity.
Setting the control volume structure.
Area of the computational grid: 0.0308.
Searching for the closest normal neighbors to the surfaces.
Storing a mapping from global to local point index.
Compute the surface curvature.
Max K: 400. Mean K: 20.5. Standard deviation K: 57.
Checking for periodicity.
Setting point connectivity.
Renumbering points (Reverse Cuthill McKee Ordering).
Recomputing point connectivity.
Setting element connectivity.
Checking the numerical grid orientation.
Identifying edges and vertices.
Computing centers of gravity.
Setting the control volume structure.
Area of the computational grid: 0.00874.
Searching for the closest normal neighbors to the surfaces.
Storing a mapping from global to local point index.
Compute the surface curvature.
Max K: 738. Mean K: 30.7. Standard deviation K: 95.1.
Checking for periodicity.
Computing wall distances.
Wetted area = 0.355 m.
Area projection in the x-plane = 0.119 m, y-plane = 0.119 m.
Max. coordinate in the x-direction = 0.242 m, y-direction = 0.118 m.
Min coordinate in the x-direction = 0.124 m, y-direction = -0.00044 m,.
Computing wall distances.
Wetted area = 0.226 m.
Area projection in the x-plane = 0.0613 m, y-plane = 0.0878 m.
Max. coordinate in the x-direction = 0.396 m, y-direction = 0.0423 m.
Min coordinate in the x-direction = 0.308 m, y-direction = -0.0185 m,.

------------------------- Driver information --------------------------
A Fluid driver has been instantiated.

------------------------ Iteration Preprocessing ------------------------
Zone 1: discrete adjoint Euler/Navier-Stokes/RANS fluid iteration.

------------------------- Solver Preprocessing --------------------------
Viscous flow: Computing pressure using the ideal gas law
based on the free-stream temperature and a density computed
from the Reynolds number.
Force coefficients computed using MACH_MOTION.
-- Input conditions:
Fluid Model: IDEAL_GAS 
Specific gas constant: 298.34 N.m/kg.K.
Specific gas constant (non-dim): 298.34
Specific Heat Ratio: 1.293
Viscosity Model: SUTHERLAND 
Ref. Laminar Viscosity: 1.716e-05 N.s/m^2.
Ref. Temperature: 273.15 K.
Sutherland Constant: 110.4 K.
Laminar Viscosity (non-dim): 1.7e-05
Ref. Temperature (non-dim): 273.15
Sutherland constant (non-dim): 110.4
Conductivity Model: CONSTANT_PRANDTL  
Prandtl: 0.72
Free-stream static pressure: 1.1e+06 Pa.
Free-stream total pressure: 1.12873e+06 Pa.
Free-stream temperature: 1333.15 K.
Free-stream density: 2.76568 kg/m^3.
Free-stream velocity: (143.425, 0) m/s. Magnitude: 143.425 m/s (278.795 KTS).
Free-stream total energy per unit mass: 1.36781e+06 m^2/s^2.
Free-stream viscosity: 4.91614e-05 N.s/m^2.
Free-stream turb. kinetic energy per unit mass: 77.1401 m^2/s^2.
Free-stream specific dissipation: 43396.9 1/s.
-- Reference values:
Reference specific gas constant: 1 N.m/kg.K.
Reference pressure: 1 Pa.
Reference temperature: 1 K.
Reference density: 1 kg/m^3.
Reference velocity: 1 m/s.
Reference energy per unit mass: 1 m^2/s^2.
Reference viscosity: 1 N.s/m^2.
Reference conductivity: 1 W/m^2.K.
-- Resulting non-dimensional state:
Mach number (non-dim): 0.2
Reynolds number (non-dim): 3.19e+06. Re length: 1 m.
Specific gas constant (non-dim): 298.34
Free-stream temperature (non-dim): 1333.15
Free-stream pressure (non-dim): 1.1e+06
Free-stream density (non-dim): 2.76568
Free-stream velocity (non-dim): (143.425, 0). Magnitude: 143.425
Free-stream total energy per unit mass (non-dim): 1.36781e+06
Free-stream viscosity (non-dim): 4.91614e-05
Free-stream turb. kinetic energy (non-dim): 77.1401
Free-stream specific dissipation (non-dim): 43396.9

Initialize Jacobian structure (Navier-Stokes). MG level: 0.
Initialize Jacobian structure (SST model).

----------------- Integration and Numerics Preprocessing ----------------
Integration Preprocessing.
Numerics Preprocessing.

------------------------ Iteration Preprocessing ------------------------
Zone 2: discrete adjoint Euler/Navier-Stokes/RANS fluid iteration.

------------------------- Solver Preprocessing --------------------------
Viscous flow: Computing pressure using the ideal gas law
based on the free-stream temperature and a density computed
from the Reynolds number.
Force coefficients computed using MACH_MOTION.
-- Input conditions:
Fluid Model: IDEAL_GAS 
Specific gas constant: 298.34 N.m/kg.K.
Specific gas constant (non-dim): 298.34
Specific Heat Ratio: 1.293
Viscosity Model: SUTHERLAND 
Ref. Laminar Viscosity: 1.716e-05 N.s/m^2.
Ref. Temperature: 273.15 K.
Sutherland Constant: 110.4 K.
Laminar Viscosity (non-dim): 1.7e-05
Ref. Temperature (non-dim): 273.15
Sutherland constant (non-dim): 110.4
Conductivity Model: CONSTANT_PRANDTL  
Prandtl: 0.72
Free-stream static pressure: 1.1e+06 Pa.
Free-stream total pressure: 1.12873e+06 Pa.
Free-stream temperature: 1333.15 K.
Free-stream density: 2.76568 kg/m^3.
Free-stream velocity: (143.425, 0) m/s. Magnitude: 143.425 m/s (278.795 KTS).
Free-stream total energy per unit mass: 1.36781e+06 m^2/s^2.
Free-stream viscosity: 4.91614e-05 N.s/m^2.
Free-stream turb. kinetic energy per unit mass: 77.1401 m^2/s^2.
Free-stream specific dissipation: 43396.9 1/s.
-- Reference values:
Reference specific gas constant: 1 N.m/kg.K.
Reference pressure: 1 Pa.
Reference temperature: 1 K.
Reference density: 1 kg/m^3.
Reference velocity: 1 m/s.
Reference energy per unit mass: 1 m^2/s^2.
Reference viscosity: 1 N.s/m^2.
Reference conductivity: 1 W/m^2.K.
-- Resulting non-dimensional state:
Mach number (non-dim): 0.2
Reynolds number (non-dim): 3.19e+06. Re length: 1 m.
Specific gas constant (non-dim): 298.34
Free-stream temperature (non-dim): 1333.15
Free-stream pressure (non-dim): 1.1e+06
Free-stream density (non-dim): 2.76568
Free-stream velocity (non-dim): (143.425, 0). Magnitude: 143.425
Free-stream total energy per unit mass (non-dim): 1.36781e+06
Free-stream viscosity (non-dim): 4.91614e-05
Free-stream turb. kinetic energy (non-dim): 77.1401
Free-stream specific dissipation (non-dim): 43396.9

Initialize Jacobian structure (Navier-Stokes). MG level: 0.
Initialize Jacobian structure (SST model).

----------------- Integration and Numerics Preprocessing ----------------
Integration Preprocessing.
Numerics Preprocessing.

------------------- Multizone Interface Preprocessing -------------------
Set mixing-plane interface from donor zone 1 to target zone 0.
Set mixing-plane interface from donor zone 0 to target zone 1.
Setting dynamic mesh structure for zone 0.
Setting dynamic mesh structure for zone 1.

--------------------- Initialize Static Mesh Movement --------------------

 Setting translational grid velocities.
 Non-dim. translational velocity: (0, 0, 0).

 Setting translational grid velocities.
 Non-dim. translational velocity: (0, -297.666, 0).

---------------------- Turbomachinery Preprocessing ---------------------

Initialize Turbo Vertex Structure.
Number of span-wise sections in Zone 0: 1.
TURBOMACHINERY folder creation failed.
Number of span-wise sections in Zone 1: 1.
Max number of span-wise sections among all zones: 1.
Initialize solver containers for average and performance quantities.
Compute inflow and outflow average geometric quantities.
Set span-wise sections between zones on Mixing-Plane interface.
Transfer average geometric quantities to zone 0.
Inlet area for Row 1: 1294.2 cm^2.
Oulet area for Row 1: 1294.2 cm^2.
Recomputed number of blades for Row 1: 7.72678.
Inlet area for Row 2: 666.709 cm^2.
Oulet area for Row 2: 666.709 cm^2.
Recomputed number of blades for Row 2: 14.999.
Preprocessing of the Mixing-Plane Interface.
Initialize inflow and outflow average solution quantities.
Inlet flow angle for Row 1: -0.00447037째.
Outlet flow angle for Row 1: -65.9145째.
Inlet flow angle for Row 2: -65.9114째.
Outlet flow angle for Row 2: 16.3598째.

------------------------------ Begin Solver -----------------------------
 Non-dim. translational velocity: (0, 0, 0).
 Non-dim. translational velocity: (0, -297.666, 0).

-------------------------------------------------------------------------
Direct iteration to store computational graph.
Compute residuals to check the convergence of the direct problem.
-------------------------------------------------------------------------

 Non-dim. translational velocity: (0, 0, 0).
 Non-dim. translational velocity: (0, -297.666, 0).
 Zone 0: log10[Conservative 0]: -10.6993
       log10[RMS k]: -8.54117
 Zone 1: log10[Conservative 0]: -12.1984
       log10[RMS k]: -4.18197
 Non-dim. translational velocity: (0, 0, 0).
 Non-dim. translational velocity: (0, -297.666, 0).
 Non-dim. translational velocity: (0, 0, 0).
 Non-dim. translational velocity: (0, -297.666, 0).

------------------------ Discrete Adjoint Summary -----------------------
Total Geometry Sensitivity (updated every 1000 iterations): 4.7237e-06
-------------------------------------------------------------------------

log10[Maximum residual]: -1.2917e+00.
Maximum residual point 11039, located at (3.0000e-02, 4.0000e-02).

 Iter    Time(s)     Res[Psi_Rho]      Res[Psi_nu] Sens_PressOut Sens_TotTempIn
    0   0.781992        -2.546292        -8.545645      0.000000      -0.000482
    0   0.781992        -2.499479        -8.619707     -0.000000       0.000000
 Non-dim. translational velocity: (0, 0, 0).
 Non-dim. translational velocity: (0, -297.666, 0).
 Non-dim. translational velocity: (0, 0, 0).
 Non-dim. translational velocity: (0, -297.666, 0).
    1   0.576614        -2.805052        -8.641319      0.000000      -0.001388
    2   0.398091        -2.905553        -8.739660      0.000000      -0.001733
    3   0.308530        -2.976773        -8.838914      0.000000      -0.001972
    4   0.254782        -3.038296        -8.938210      0.000000      -0.002139
    5   0.218961        -3.095967        -9.036311      0.000000      -0.002255
    6   0.193367        -3.150520        -9.131504      0.000000      -0.002335
    7   0.174192        -3.201668        -9.221509      0.000000      -0.002391
    8   0.159379        -3.249323        -9.303586      0.000000      -0.002430
    9   0.147613        -3.293754        -9.374989      0.000000      -0.002457
   10   0.138000        -3.335442        -9.433775      0.000000      -0.002476
   11   0.129901        -3.374910        -9.479562      0.000000      -0.002489
   12   0.122995        -3.412607        -9.513685      0.000000      -0.002498
   13   0.116966        -3.448863        -9.538603      0.000000      -0.002504
   14   0.111731        -3.483897        -9.557000      0.000000      -0.002509
   15   0.107424        -3.517821        -9.571185      0.000000      -0.002512
   16   0.103381        -3.550671        -9.582821      0.000000      -0.002514
   17   0.099765        -3.582437        -9.592965      0.000000      -0.002515
   18   0.096542        -3.613084        -9.602197      0.000000      -0.002516
   19   0.093667        -3.642576        -9.610780      0.000000      -0.002517
   20   0.091141        -3.670885        -9.618784      0.000000      -0.002518
   21   0.088830        -3.698004        -9.626192      0.000000      -0.002518
   22   0.086589        -3.723952        -9.632974      0.000000      -0.002518
   23   0.084863        -3.748770        -9.639127      0.000000      -0.002518
   24   0.083100        -3.772526        -9.644703      0.000000      -0.002519
   25   0.081478        -3.795305        -9.649804      0.000000      -0.002519
   26   0.080089        -3.817201        -9.654572      0.000000      -0.002519
   27   0.078750        -3.838314        -9.659165      0.000000      -0.002519
   28   0.077404        -3.858740        -9.663750      0.000000      -0.002519
   29   0.076211        -3.878568        -9.668431      0.000000      -0.002519
   30   0.076305        -3.897871        -9.673320      0.000000      -0.002519
   31   0.075173        -3.916711        -9.678473      0.000000      -0.002519
   32   0.074059        -3.935133        -9.683907      0.000000      -0.002519
   33   0.073008        -3.953164        -9.689604      0.000000      -0.002519
   34   0.072017        -3.970821        -9.695518      0.000000      -0.002519
   35   0.071087        -3.988108        -9.701585      0.000000      -0.002519
   36   0.070214        -4.005018        -9.707728      0.000000      -0.002519
   37   0.069375        -4.021542        -9.713868      0.000000      -0.002519
   38   0.068630        -4.037662        -9.719930      0.000000      -0.002519
   39   0.068035        -4.053362        -9.725847      0.000000      -0.002519

------------------------ Discrete Adjoint Summary -----------------------
Total Geometry Sensitivity (updated every 1000 iterations): 4.7237e-06
-------------------------------------------------------------------------

log10[Maximum residual]: -3.0978e+00.
Maximum residual point 8126, located at (2.4090e-01, -4.2177e-02).

 Iter    Time(s)     Res[Psi_Rho]      Res[Psi_nu] Sens_PressOut Sens_TotTempIn
   40   0.067557        -4.068628        -9.731561      0.000000      -0.002519
   41   0.066940        -4.083445        -9.737027      0.000000      -0.002519
   42   0.066344        -4.097804        -9.742209      0.000000      -0.002519
   43   0.065919        -4.111701        -9.747085      0.000000      -0.002519
   44   0.065412        -4.125136        -9.751637      0.000000      -0.002519
   45   0.064933        -4.138114        -9.755853      0.000000      -0.002519
   46   0.064499        -4.150645        -9.759729      0.000000      -0.002519
   47   0.064044        -4.162742        -9.763261      0.000000      -0.002519
   48   0.063630        -4.174424        -9.766447      0.000000      -0.002519
   49   0.063347        -4.185711        -9.769290      0.000000      -0.002519
   50   0.063050        -4.196622        -9.771792      0.000000      -0.002519
   51   0.062626        -4.207183        -9.773959      0.000000      -0.002518
   52   0.062218        -4.217414        -9.775800      0.000000      -0.002518
   53   0.061821        -4.227337        -9.777328      0.000000      -0.002518
   54   0.061438        -4.236975        -9.778557      0.000000      -0.002518
   55   0.061086        -4.246347        -9.779508      0.000000      -0.002518
   56   0.060741        -4.255472        -9.780202      0.000000      -0.002518
   57   0.060463        -4.264365        -9.780665      0.000000      -0.002518
   58   0.060191        -4.273035        -9.780828      0.000000      -0.002518
   59   0.059844        -4.281510        -9.780907      0.000000      -0.002518
   60   0.059501        -4.289801        -9.780843      0.000000      -0.002517
   61   0.059166        -4.297910        -9.780665      0.000000      -0.002517
   62   0.058839        -4.305849        -9.780397      0.000000      -0.002517
   63   0.058523        -4.313628        -9.780063      0.000000      -0.002517
   64   0.058219        -4.321258        -9.779683      0.000000      -0.002516
   65   0.057924        -4.328747        -9.779277      0.000000      -0.002516
   66   0.057638        -4.336104        -9.778862      0.000000      -0.002515
   67   0.057362        -4.343340        -9.778454      0.000000      -0.002515
   68   0.057095        -4.350463        -9.778063      0.000000      -0.002515
   69   0.056831        -4.357483        -9.777700      0.000000      -0.002514
   70   0.056574        -4.364410        -9.777371      0.000000      -0.002513
   71   0.056324        -4.371254        -9.777081      0.000000      -0.002513
   72   0.056082        -4.378026        -9.776836      0.000000      -0.002512
   73   0.055844        -4.384737        -9.776636      0.000000      -0.002511
   74   0.055615        -4.391397        -9.776484      0.000000      -0.002511
   75   0.055396        -4.398018        -9.776382      0.000000      -0.002510
   76   0.055327        -4.404610        -9.776330      0.000000      -0.002509
   77   0.055194        -4.411183        -9.776330      0.000000      -0.002508
   78   0.055045        -4.417748        -9.776383      0.000000      -0.002507
   79   0.054840        -4.424313        -9.776492      0.000000      -0.002506

------------------------ Discrete Adjoint Summary -----------------------
Total Geometry Sensitivity (updated every 1000 iterations): 4.7237e-06
-------------------------------------------------------------------------

log10[Maximum residual]: -3.5258e+00.
Maximum residual point 7965, located at (6.1076e-02, 3.9016e-02).

 Iter    Time(s)     Res[Psi_Rho]      Res[Psi_nu] Sens_PressOut Sens_TotTempIn
   80   0.054638        -4.430886        -9.776660      0.000000      -0.002505
   81   0.054445        -4.437476        -9.776888      0.000000      -0.002504
   82   0.054261        -4.444088        -9.777181      0.000000      -0.002503
   83   0.054082        -4.450728        -9.777541      0.000000      -0.002502
   84   0.053901        -4.457399        -9.777972      0.000000      -0.002501
   85   0.053723        -4.464103        -9.778478      0.000000      -0.002500
   86   0.053548        -4.470841        -9.779061      0.000000      -0.002499
   87   0.053377        -4.477613        -9.779725      0.000000      -0.002498
   88   0.053212        -4.484415        -9.780472      0.000000      -0.002496
   89   0.053057        -4.491245        -9.781304      0.000000      -0.002495
   90   0.052958        -4.498097        -9.782222      0.000000      -0.002494
   91   0.052921        -4.504965        -9.783227      0.000000      -0.002493
   92   0.052784        -4.511841        -9.784318      0.000000      -0.002491
   93   0.052674        -4.518716        -9.785495      0.000000      -0.002490
   94   0.052583        -4.525581        -9.786755      0.000000      -0.002489
   95   0.052444        -4.532425        -9.788098      0.000000      -0.002487
   96   0.052310        -4.539238        -9.789520      0.000000      -0.002486
   97   0.052179        -4.546008        -9.791018      0.000000      -0.002485
   98   0.052051        -4.552725        -9.792589      0.000000      -0.002484
   99   0.051925        -4.559377        -9.794229      0.000000      -0.002483
  100   0.051801        -4.565955        -9.795934      0.000000      -0.002481
  101   0.051693        -4.572448        -9.797701      0.000000      -0.002480
  102   0.051574        -4.578848        -9.799526      0.000000      -0.002479
  103   0.051458        -4.585146        -9.801406      0.000000      -0.002478
  104   0.051343        -4.591336        -9.803337      0.000000      -0.002477
  105   0.051231        -4.597413        -9.805317      0.000000      -0.002476
  106   0.051122        -4.603372        -9.807343      0.000000      -0.002475
  107   0.051017        -4.609211        -9.809412      0.000000      -0.002474
  108   0.050924        -4.614930        -9.811524      0.000000      -0.002473
  109   0.050820        -4.620527        -9.813677      0.000000      -0.002472
  110   0.050718        -4.626005        -9.815870      0.000000      -0.002471
  111   0.050619        -4.631367        -9.818103      0.000000      -0.002470
  112   0.050520        -4.636617        -9.820375      0.000000      -0.002469
  113   0.050423        -4.641761        -9.822686      0.000000      -0.002468
  114   0.050342        -4.646804        -9.825036      0.000000      -0.002468
  115   0.050276        -4.651754        -9.827427      0.000000      -0.002467
  116   0.050187        -4.656618        -9.829857      0.000000      -0.002466
  117   0.050099        -4.661405        -9.832329      0.000000      -0.002466
  118   0.050021        -4.666122        -9.834842      0.000000      -0.002465
  119   0.049961        -4.670778        -9.837396      0.000000      -0.002464

------------------------ Discrete Adjoint Summary -----------------------
Total Geometry Sensitivity (updated every 1000 iterations): 4.7237e-06
-------------------------------------------------------------------------

log10[Maximum residual]: -3.7183e+00.
Maximum residual point 8061, located at (1.2308e-01, 4.0069e-02).

 Iter    Time(s)     Res[Psi_Rho]      Res[Psi_nu] Sens_PressOut Sens_TotTempIn
  120   0.049894        -4.675382        -9.839993      0.000000      -0.002464
  121   0.049806        -4.679941        -9.842633      0.000000      -0.002463
  122   0.049798        -4.684464        -9.845316      0.000000      -0.002463
  123   0.049755        -4.688959        -9.848041      0.000000      -0.002463
  124   0.049692        -4.693431        -9.850809      0.000000      -0.002462
  125   0.049682        -4.697889        -9.853620      0.000000      -0.002462
  126   0.049601        -4.702319        -9.856430      0.000000      -0.002462
  127   0.049523        -4.706783        -9.859325      0.000000      -0.002461
  128   0.049583        -4.711226        -9.862256      0.000000      -0.002461
  129   0.049694        -4.715671        -9.865231      0.000000      -0.002461
  130   0.049610        -4.720126        -9.868248      0.000000      -0.002461
  131   0.049524        -4.724595        -9.871306      0.000000      -0.002461
  132   0.049437        -4.729079        -9.874402      0.000000      -0.002461
  133   0.049352        -4.733581        -9.877533      0.000000      -0.002460
  134   0.049271        -4.738098        -9.880697      0.000000      -0.002460
  135   0.049190        -4.742632        -9.883893      0.000000      -0.002460
  136   0.049108        -4.747180        -9.887119      0.000000      -0.002460
  137   0.049028        -4.751743        -9.890375      0.000000      -0.002460
  138   0.048954        -4.756318        -9.893658      0.000000      -0.002460
  139   0.048876        -4.760902        -9.896967      0.000000      -0.002460
  140   0.048799        -4.765493        -9.900300      0.000000      -0.002460
  141   0.048724        -4.770087        -9.903655      0.000000      -0.002460
  142   0.048689        -4.774679        -9.907029      0.000000      -0.002460
  143   0.048633        -4.779266        -9.910421      0.000000      -0.002461
  144   0.048586        -4.783840        -9.913828      0.000000      -0.002461
  145   0.048523        -4.788396        -9.917247      0.000000      -0.002461
  146   0.048475        -4.792927        -9.920677      0.000000      -0.002461
  147   0.048421        -4.797423        -9.924115      0.000000      -0.002461
  148   0.048365        -4.801877        -9.927559      0.000000      -0.002461
  149   0.048358        -4.806277        -9.931007      0.000000      -0.002461
  150   0.048339        -4.810613        -9.934458      0.000000      -0.002462
  151   0.048271        -4.814872        -9.937908      0.000000      -0.002462
  152   0.048203        -4.819040        -9.941358      0.000000      -0.002462
  153   0.048167        -4.823102        -9.944804      0.000000      -0.002462
  154   0.048147        -4.827042        -9.948246      0.000000      -0.002462
  155   0.048114        -4.830841        -9.951682      0.000000      -0.002462
  156   0.048103        -4.834480        -9.955110      0.000000      -0.002463
  157   0.048038        -4.837936        -9.958531      0.000000      -0.002463
  158   0.047970        -4.841187        -9.961942      0.000000      -0.002463
  159   0.047907        -4.844208        -9.965342      0.000000      -0.002463

------------------------ Discrete Adjoint Summary -----------------------
Total Geometry Sensitivity (updated every 1000 iterations): 4.7237e-06
-------------------------------------------------------------------------

log10[Maximum residual]: -3.8839e+00.
Maximum residual point 7927, located at (4.5541e-02, 3.9418e-02).

 Iter    Time(s)     Res[Psi_Rho]      Res[Psi_nu] Sens_PressOut Sens_TotTempIn
  160   0.047846        -4.846972        -9.968732      0.000000      -0.002463
  161   0.047781        -4.849453        -9.972109      0.000000      -0.002464
  162   0.047716        -4.851620        -9.975474      0.000000      -0.002464
  163   0.047651        -4.853444        -9.978825      0.000000      -0.002464
  164   0.047587        -4.854894        -9.982162      0.000000      -0.002464
  165   0.047524        -4.855939        -9.985486      0.000000      -0.002464
  166   0.047462        -4.856549        -9.988794      0.000000      -0.002465
  167   0.047403        -4.856692        -9.992088      0.000000      -0.002465
  168   0.047352        -4.856404        -9.995446      0.000000      -0.002465
  169   0.047301        -4.855604        -9.998689      0.000000      -0.002465
  170   0.047250        -4.854219       -10.001918      0.000000      -0.002465
  171   0.047199        -4.852247       -10.005138      0.000000      -0.002466
  172   0.047150        -4.849682       -10.008348      0.000000      -0.002466
  173   0.047100        -4.846515       -10.011548      0.000000      -0.002466
  174   0.047051        -4.842738       -10.014737      0.000000      -0.002466
  175   0.047003        -4.838352       -10.017912      0.000000      -0.002467
  176   0.046958        -4.833357       -10.021074      0.000000      -0.002467
  177   0.046910        -4.827763       -10.024220      0.000000      -0.002467
  178   0.046863        -4.821582       -10.027352      0.000000      -0.002467
  179   0.046832        -4.814833       -10.030467      0.000000      -0.002468
  180   0.046787        -4.807538       -10.033566      0.000000      -0.002468
  181   0.046741        -4.799724       -10.036648      0.000000      -0.002468
  182   0.046697        -4.791421       -10.039713      0.000000      -0.002468
  183   0.046655        -4.782663       -10.042761      0.000000      -0.002469
  184   0.046613        -4.773484       -10.045791      0.000000      -0.002469
  185   0.046570        -4.763921       -10.048803      0.000000      -0.002469
  186   0.046527        -4.754012       -10.051797      0.000000      -0.002469
  187   0.046484        -4.743794       -10.054772      0.000000      -0.002470
  188   0.046442        -4.733305       -10.057728      0.000000      -0.002470
  189   0.046401        -4.722581       -10.060664      0.000000      -0.002470
  190   0.046363        -4.711659       -10.063579      0.000000      -0.002471
  191   0.046347        -4.700571       -10.066473      0.000000      -0.002471
  192   0.046366        -4.689350       -10.069346      0.000000      -0.002471
  193   0.046335        -4.678027       -10.072195      0.000000      -0.002471
  194   0.046314        -4.666630       -10.075020      0.000000      -0.002472
  195   0.046307        -4.655185       -10.077820      0.000000      -0.002472
  196   0.046270        -4.643716       -10.080593      0.000000      -0.002472
  197   0.046236        -4.632246       -10.083339      0.000000      -0.002473
  198   0.046201        -4.620795       -10.086055      0.000000      -0.002473
  199   0.046175        -4.609435       -10.088746      0.000000      -0.002474

------------------------ Discrete Adjoint Summary -----------------------
Total Geometry Sensitivity (updated every 1000 iterations): 4.7237e-06
-------------------------------------------------------------------------

log10[Maximum residual]: -3.4245e+00.
Maximum residual point 11035, located at (2.8000e-01, -1.0000e-01).

 Iter    Time(s)     Res[Psi_Rho]      Res[Psi_nu] Sens_PressOut Sens_TotTempIn
  200   0.046150        -4.598090       -10.091387      0.000000      -0.002474
  201   0.046125        -4.586799       -10.094000      0.000000      -0.002474
  202   0.046105        -4.575587       -10.096581      0.000000      -0.002475
  203   0.046079        -4.564469       -10.099127      0.000000      -0.002475
  204   0.046054        -4.553455       -10.101634      0.000000      -0.002475
  205   0.046029        -4.542557       -10.104100      0.000000      -0.002476
  206   0.046004        -4.531780       -10.106520      0.000000      -0.002476
  207   0.045979        -4.521134       -10.108893      0.000000      -0.002477
  208   0.045962        -4.510623       -10.111215      0.000000      -0.002477
  209   0.045938        -4.500253       -10.113484      0.000000      -0.002477
  210   0.045915        -4.490027       -10.115698      0.000000      -0.002478
  211   0.045891        -4.479951       -10.117853      0.000000      -0.002478
  212   0.045868        -4.470026       -10.119947      0.000000      -0.002479
  213   0.045845        -4.460255       -10.121976      0.000000      -0.002479
  214   0.045823        -4.450640       -10.123939      0.000000      -0.002479
  215   0.045823        -4.441182       -10.125832      0.000000      -0.002480
  216   0.045802        -4.431882       -10.127651      0.000000      -0.002480
  217   0.045782        -4.422740       -10.129393      0.000000      -0.002481
  218   0.045764        -4.413757       -10.131055      0.000000      -0.002481
  219   0.045760        -4.404932       -10.132633      0.000000      -0.002481
  220   0.045751        -4.396266       -10.134123      0.000000      -0.002482
  221   0.045726        -4.387757       -10.135522      0.000000      -0.002482
  222   0.045733        -4.379404       -10.136826      0.000000      -0.002483
  223   0.045726        -4.371208       -10.138031      0.000000      -0.002483
  224   0.045718        -4.363166       -10.139133      0.000000      -0.002484
  225   0.045736        -4.355276       -10.140130      0.000000      -0.002484
  226   0.045722        -4.347539       -10.141016      0.000000      -0.002484
  227   0.045708        -4.339952       -10.141789      0.000000      -0.002485
  228   0.045796        -4.332513       -10.142445      0.000000      -0.002485
  229   0.045865        -4.325221       -10.142981      0.000000      -0.002486
  230   0.045844        -4.318073       -10.143392      0.000000      -0.002486
  231   0.045823        -4.311069       -10.143676      0.000000      -0.002486
  232   0.045802        -4.304206       -10.143829      0.000000      -0.002487
  233   0.045782        -4.297481       -10.143849      0.000000      -0.002487
  234   0.045763        -4.290894       -10.143732      0.000000      -0.002488
  235   0.045743        -4.284441       -10.143477      0.000000      -0.002488
  236   0.045723        -4.278122       -10.143080      0.000000      -0.002488
  237   0.045705        -4.271932       -10.142540      0.000000      -0.002489
  238   0.045685        -4.265872       -10.141854      0.000000      -0.002489
  239   0.045665        -4.259937       -10.141021      0.000000      -0.002489

------------------------ Discrete Adjoint Summary -----------------------
Total Geometry Sensitivity (updated every 1000 iterations): 4.7237e-06
-------------------------------------------------------------------------

log10[Maximum residual]: -3.1392e+00.
Maximum residual point 11035, located at (2.8000e-01, -1.0000e-01).

 Iter    Time(s)     Res[Psi_Rho]      Res[Psi_nu] Sens_PressOut Sens_TotTempIn
  240   0.045646        -4.254127       -10.140040      0.000000      -0.002490
  241   0.045653        -4.248439       -10.138909      0.000000      -0.002490
  242   0.045640        -4.242870       -10.137627      0.000000      -0.002491
  243   0.045637        -4.237419       -10.136195      0.000000      -0.002491
  244   0.045630        -4.232083       -10.134611      0.000000      -0.002491
  245   0.045619        -4.226860       -10.132877      0.000000      -0.002491
  246   0.045613        -4.221748       -10.130992      0.000000      -0.002492
  247   0.045601        -4.216745       -10.128957      0.000000      -0.002492
  248   0.045636        -4.211848       -10.126773      0.000000      -0.002492
  249   0.045623        -4.207056       -10.124442      0.000000      -0.002493
  250   0.045603        -4.202366       -10.121964      0.000000      -0.002493
  251   0.045585        -4.197776       -10.119343      0.000000      -0.002493
  252   0.045566        -4.193283       -10.116580      0.000000      -0.002493
  253   0.045548        -4.188887       -10.113678      0.000000      -0.002493
  254   0.045534        -4.184584       -10.110639      0.000000      -0.002494
  255   0.045515        -4.180373       -10.107466      0.000000      -0.002494
  256   0.045494        -4.176252       -10.104162      0.000000      -0.002494
  257   0.045473        -4.172218       -10.100731      0.000000      -0.002494
  258   0.045457        -4.168270       -10.097176      0.000000      -0.002494
  259   0.045437        -4.164405       -10.093501      0.000000      -0.002494
  260   0.045416        -4.160622       -10.089709      0.000000      -0.002495
  261   0.045396        -4.156918       -10.085805      0.000000      -0.002495
  262   0.045375        -4.153292       -10.081792      0.000000      -0.002495
  263   0.045355        -4.149742       -10.077675      0.000000      -0.002495
  264   0.045335        -4.146266       -10.073457      0.000000      -0.002495
  265   0.045316        -4.142862       -10.069143      0.000000      -0.002495
  266   0.045303        -4.139578       -10.064755      0.000000      -0.002495
  267   0.045289        -4.136304       -10.060278      0.000000      -0.002495
  268   0.045275        -4.133099       -10.055711      0.000000      -0.002495
  269   0.045261        -4.129961       -10.051064      0.000000      -0.002495
  270   0.045246        -4.126887       -10.046341      0.000000      -0.002495
  271   0.045233        -4.123876       -10.041545      0.000000      -0.002495
  272   0.045219        -4.120924       -10.036680      0.000000      -0.002495
  273   0.045206        -4.118032       -10.031752      0.000000      -0.002495
  274   0.045192        -4.115196       -10.026765      0.000000      -0.002495
  275   0.045178        -4.112416       -10.021722      0.000000      -0.002495
  276   0.045165        -4.109690       -10.016627      0.000000      -0.002495
  277   0.045151        -4.107016       -10.011486      0.000000      -0.002494
  278   0.045137        -4.104394       -10.006302      0.000000      -0.002494
  279   0.045125        -4.101821       -10.001077      0.000000      -0.002494

------------------------ Discrete Adjoint Summary -----------------------
Total Geometry Sensitivity (updated every 1000 iterations): 4.7237e-06
-------------------------------------------------------------------------

log10[Maximum residual]: -3.0796e+00.
Maximum residual point 11035, located at (2.8000e-01, -1.0000e-01).

 Iter    Time(s)     Res[Psi_Rho]      Res[Psi_nu] Sens_PressOut Sens_TotTempIn
  280   0.045115        -4.099297        -9.995817      0.000000      -0.002494
  281   0.045103        -4.096819        -9.990523      0.000000      -0.002494
  282   0.045091        -4.094387        -9.985200      0.000000      -0.002493
  283   0.045078        -4.092000        -9.979849      0.000000      -0.002493
  284   0.045065        -4.089655        -9.974475      0.000000      -0.002493
  285   0.045052        -4.087352        -9.969080      0.000000      -0.002493
  286   0.045055        -4.085090        -9.963668      0.000000      -0.002492
  287   0.045052        -4.082868        -9.958240      0.000000      -0.002492
  288   0.045088        -4.080683        -9.952799      0.000000      -0.002492
  289   0.045082        -4.078536        -9.947348      0.000000      -0.002491
  290   0.045083        -4.076425        -9.941890      0.000000      -0.002491
  291   0.045091        -4.074349        -9.936425      0.000000      -0.002490
  292   0.045081        -4.072308        -9.930958      0.000000      -0.002490
  293   0.045072        -4.070300        -9.925488      0.000000      -0.002489
  294   0.045063        -4.068324        -9.920019      0.000000      -0.002489
  295   0.045054        -4.066380        -9.914552      0.000000      -0.002488
  296   0.045044        -4.064466        -9.909088      0.000000      -0.002488
  297   0.045036        -4.062582        -9.903629      0.000000      -0.002487
  298   0.045032        -4.060728        -9.898177      0.000000      -0.002487
  299   0.045023        -4.058902        -9.892732      0.000000      -0.002486
  300   0.045014        -4.057103        -9.887296      0.000000      -0.002486
  301   0.045006        -4.055332        -9.881869      0.000000      -0.002485
  302   0.044997        -4.053586        -9.876454      0.000000      -0.002484
  303   0.045005        -4.051867        -9.871051      0.000000      -0.002483
  304   0.045016        -4.050172        -9.865661      0.000000      -0.002483
  305   0.045009        -4.048503        -9.860285      0.000000      -0.002482
  306   0.045000        -4.046857        -9.854924      0.000000      -0.002481
  307   0.044992        -4.045234        -9.849578      0.000000      -0.002480
  308   0.044984        -4.043635        -9.844249      0.000000      -0.002479
  309   0.044978        -4.042058        -9.838938      0.000000      -0.002479
  310   0.044983        -4.040502        -9.833644      0.000000      -0.002478
  311   0.044977        -4.038969        -9.828369      0.000000      -0.002477
  312   0.044970        -4.037456        -9.823113      0.000000      -0.002476
  313   0.044966        -4.035965        -9.817878      0.000000      -0.002475
  314   0.044968        -4.034493        -9.812663      0.000000      -0.002474
  315   0.044969        -4.033041        -9.807468      0.000000      -0.002473
  316   0.044959        -4.031609        -9.802296      0.000000      -0.002472
  317   0.044987        -4.030196        -9.797146      0.000000      -0.002471
  318   0.044988        -4.028802        -9.792018      0.000000      -0.002469
  319   0.044978        -4.027427        -9.786913      0.000000      -0.002468

------------------------ Discrete Adjoint Summary -----------------------
Total Geometry Sensitivity (updated every 1000 iterations): 4.7237e-06
-------------------------------------------------------------------------

log10[Maximum residual]: -3.0926e+00.
Maximum residual point 11035, located at (2.8000e-01, -1.0000e-01).

 Iter    Time(s)     Res[Psi_Rho]      Res[Psi_nu] Sens_PressOut Sens_TotTempIn
  320   0.044996        -4.026071        -9.781829      0.000000      -0.002467
  321   0.044988        -4.024734        -9.776772      0.000000      -0.002466
  322   0.044983        -4.023414        -9.771739      0.000000      -0.002464
  323   0.045096        -4.022112        -9.766730      0.000000      -0.002463
  324   0.045087        -4.020826        -9.761747      0.000000      -0.002462
  325   0.045073        -4.019557        -9.756789      0.000000      -0.002460
  326   0.045058        -4.018304        -9.751857      0.000000      -0.002459
  327   0.045044        -4.017067        -9.746950      0.000000      -0.002458
  328   0.045031        -4.015847        -9.742070      0.000000      -0.002456
  329   0.045017        -4.014642        -9.737217      0.000000      -0.002455
  330   0.045003        -4.013453        -9.732391      0.000000      -0.002453
  331   0.044989        -4.012279        -9.727593      0.000000      -0.002451
  332   0.044978        -4.011121        -9.722822      0.000000      -0.002450
  333   0.044964        -4.009977        -9.718079      0.000000      -0.002448
  334   0.044950        -4.008849        -9.713364      0.000000      -0.002446
  335   0.044937        -4.007736        -9.708678      0.000000      -0.002445
  336   0.044943        -4.006637        -9.704020      0.000000      -0.002443
  337   0.044934        -4.005553        -9.699392      0.000000      -0.002441
  338   0.044929        -4.004483        -9.694793      0.000000      -0.002439
  339   0.044925        -4.003427        -9.690223      0.000000      -0.002437
  340   0.044917        -4.002385        -9.685683      0.000000      -0.002436
  341   0.044913        -4.001358        -9.681173      0.000000      -0.002434
  342   0.044921        -4.000344        -9.676693      0.000000      -0.002432
  343   0.044935        -3.999344        -9.672244      0.000000      -0.002430
  344   0.044922        -3.998358        -9.667825      0.000000      -0.002428
  345   0.044930        -3.997385        -9.663437      0.000000      -0.002425
  346   0.044924        -3.996426        -9.659080      0.000000      -0.002423
  347   0.044910        -3.995481        -9.654754      0.000000      -0.002421
  348   0.044900        -3.994548        -9.650460      0.000000      -0.002419
  349   0.044889        -3.993629        -9.646197      0.000000      -0.002417
  350   0.044874        -3.992724        -9.641966      0.000000      -0.002414
  351   0.044859        -3.991831        -9.637766      0.000000      -0.002412
  352   0.044846        -3.990952        -9.633598      0.000000      -0.002410
  353   0.044833        -3.990085        -9.629463      0.000000      -0.002407
  354   0.044818        -3.989232        -9.625359      0.000000      -0.002405
  355   0.044803        -3.988392        -9.621288      0.000000      -0.002402
  356   0.044788        -3.987565        -9.617249      0.000000      -0.002400
  357   0.044774        -3.986751        -9.613243      0.000000      -0.002397
  358   0.044759        -3.985951        -9.609269      0.000000      -0.002395
  359   0.044745        -3.985163        -9.605328      0.000000      -0.002392

------------------------ Discrete Adjoint Summary -----------------------
Total Geometry Sensitivity (updated every 1000 iterations): 4.7237e-06
-------------------------------------------------------------------------

log10[Maximum residual]: -3.1066e+00.
Maximum residual point 11035, located at (2.8000e-01, -1.0000e-01).

 Iter    Time(s)     Res[Psi_Rho]      Res[Psi_nu] Sens_PressOut Sens_TotTempIn
  360   0.044731        -3.984388        -9.601419      0.000000      -0.002390
  361   0.044718        -3.983626        -9.597543      0.000000      -0.002387
  362   0.044704        -3.982878        -9.593700      0.000000      -0.002384
  363   0.044690        -3.982142        -9.589889      0.000000      -0.002381
  364   0.044676        -3.981420        -9.586112      0.000000      -0.002379
  365   0.044662        -3.980711        -9.582367      0.000000      -0.002376
  366   0.044648        -3.980016        -9.578655      0.000000      -0.002373
  367   0.044634        -3.979333        -9.574976      0.000000      -0.002370
  368   0.044621        -3.978664        -9.571330      0.000000      -0.002367
  369   0.044607        -3.978009        -9.567717      0.000000      -0.002364
  370   0.044594        -3.977367        -9.564136      0.000000      -0.002361
  371   0.044580        -3.976739        -9.560589      0.000000      -0.002358
  372   0.044566        -3.976125        -9.557074      0.000000      -0.002355
  373   0.044553        -3.975524        -9.553592      0.000000      -0.002352
  374   0.044539        -3.974937        -9.550143      0.000000      -0.002348
  375   0.044527        -3.974364        -9.546726      0.000000      -0.002345
  376   0.044514        -3.973806        -9.543343      0.000000      -0.002342
  377   0.044502        -3.973262        -9.539991      0.000000      -0.002339
  378   0.044489        -3.972732        -9.536673      0.000000      -0.002335
  379   0.044475        -3.972216        -9.533387      0.000000      -0.002332
  380   0.044462        -3.971716        -9.530134      0.000000      -0.002329
  381   0.044449        -3.971230        -9.526913      0.000000      -0.002325
  382   0.044438        -3.970759        -9.523725      0.000000      -0.002322
  383   0.044438        -3.970302        -9.520569      0.000000      -0.002318
  384   0.044454        -3.969862        -9.517445      0.000000      -0.002315
  385   0.044446        -3.969436        -9.514353      0.000000      -0.002311
  386   0.044444        -3.969026        -9.511294      0.000000      -0.002308
  387   0.044446        -3.968631        -9.508266      0.000000      -0.002304
  388   0.044435        -3.968252        -9.505271      0.000000      -0.002301
  389   0.044425        -3.967889        -9.502307      0.000000      -0.002297
  390   0.044415        -3.967542        -9.499375      0.000000      -0.002293
  391   0.044404        -3.967212        -9.496474      0.000000      -0.002289
  392   0.044403        -3.966897        -9.493605      0.000000      -0.002286
  393   0.044393        -3.966599        -9.490768      0.000000      -0.002282
  394   0.044387        -3.966317        -9.487961      0.000000      -0.002278
  395   0.044377        -3.966053        -9.485186      0.000000      -0.002274
  396   0.044367        -3.965805        -9.482442      0.000000      -0.002270
  397   0.044357        -3.965574        -9.479728      0.000000      -0.002266
  398   0.044347        -3.965360        -9.477046      0.000000      -0.002262
  399   0.044336        -3.965163        -9.474394      0.000000      -0.002258

------------------------ Discrete Adjoint Summary -----------------------
Total Geometry Sensitivity (updated every 1000 iterations): 4.7237e-06
-------------------------------------------------------------------------

log10[Maximum residual]: -3.1304e+00.
Maximum residual point 11035, located at (2.8000e-01, -1.0000e-01).

 Iter    Time(s)     Res[Psi_Rho]      Res[Psi_nu] Sens_PressOut Sens_TotTempIn
  400   0.044328        -3.964984        -9.471772      0.000000      -0.002254
  401   0.044318        -3.964823        -9.469180      0.000000      -0.002250
  402   0.044306        -3.964679        -9.466619      0.000000      -0.002246
  403   0.044295        -3.964553        -9.464087      0.000000      -0.002242
  404   0.044285        -3.964444        -9.461586      0.000000      -0.002238
  405   0.044274        -3.964354        -9.459114      0.000000      -0.002234
  406   0.044263        -3.964281        -9.456671      0.000000      -0.002230
  407   0.044264        -3.964227        -9.454257      0.000000      -0.002225
  408   0.044254        -3.964191        -9.451873      0.000000      -0.002221
  409   0.044244        -3.964174        -9.449517      0.000000      -0.002217
  410   0.044236        -3.964175        -9.447190      0.000000      -0.002213
  411   0.044235        -3.964194        -9.444891      0.000000      -0.002208
  412   0.044224        -3.964232        -9.442621      0.000000      -0.002204
  413   0.044219        -3.964289        -9.440378      0.000000      -0.002200
  414   0.044224        -3.964364        -9.438163      0.000000      -0.002195
  415   0.044226        -3.964458        -9.435976      0.000000      -0.002191
  416   0.044223        -3.964571        -9.433816      0.000000      -0.002186
  417   0.044211        -3.964702        -9.431684      0.000000      -0.002182
  418   0.044224        -3.964853        -9.429578      0.000000      -0.002177
  419   0.044217        -3.965022        -9.427499      0.000000      -0.002173
  420   0.044214        -3.965210        -9.425446      0.000000      -0.002168
  421   0.044301        -3.965418        -9.423419      0.000000      -0.002164
  422   0.044295        -3.965644        -9.421418      0.000000      -0.002159
  423   0.044285        -3.965889        -9.419443      0.000000      -0.002155
  424   0.044275        -3.966152        -9.417494      0.000000      -0.002150
  425   0.044264        -3.966435        -9.415569      0.000000      -0.002145
  426   0.044255        -3.966737        -9.413670      0.000000      -0.002141
  427   0.044245        -3.967057        -9.411795      0.000000      -0.002136
  428   0.044235        -3.967396        -9.409945      0.000000      -0.002131
  429   0.044225        -3.967754        -9.408119      0.000000      -0.002126
  430   0.044216        -3.968130        -9.406317      0.000000      -0.002122
  431   0.044206        -3.968525        -9.404539      0.000000      -0.002117
  432   0.044196        -3.968939        -9.402784      0.000000      -0.002112
  433   0.044187        -3.969371        -9.401052      0.000000      -0.002107
  434   0.044191        -3.969822        -9.399343      0.000000      -0.002102
  435   0.044186        -3.970290        -9.397657      0.000000      -0.002098
  436   0.044184        -3.970777        -9.395994      0.000000      -0.002093
  437   0.044181        -3.971283        -9.394353      0.000000      -0.002088
  438   0.044175        -3.971806        -9.392733      0.000000      -0.002083
  439   0.044172        -3.972347        -9.391136      0.000000      -0.002078

------------------------ Discrete Adjoint Summary -----------------------
Total Geometry Sensitivity (updated every 1000 iterations): 4.7237e-06
-------------------------------------------------------------------------

log10[Maximum residual]: -3.2027e+00.
Maximum residual point 8061, located at (1.2308e-01, 4.0069e-02).

 Iter    Time(s)     Res[Psi_Rho]      Res[Psi_nu] Sens_PressOut Sens_TotTempIn
  440   0.044172        -3.972906        -9.389560      0.000000      -0.002073
  441   0.044192        -3.973482        -9.388005      0.000000      -0.002068
  442   0.044183        -3.974076        -9.386471      0.000000      -0.002063
  443   0.044173        -3.974688        -9.384958      0.000000      -0.002058
  444   0.044163        -3.975317        -9.383466      0.000000      -0.002053
  445   0.044153        -3.975963        -9.381994      0.000000      -0.002048
  446   0.044144        -3.976626        -9.380542      0.000000      -0.002043
  447   0.044136        -3.977306        -9.379109      0.000000      -0.002038
  448   0.044126        -3.978003        -9.377697      0.000000      -0.002033
  449   0.044115        -3.978716        -9.376304      0.000000      -0.002028
  450   0.044104        -3.979446        -9.374930      0.000000      -0.002022
  451   0.044095        -3.980192        -9.373575      0.000000      -0.002017
  452   0.044084        -3.980954        -9.372238      0.000000      -0.002012
  453   0.044073        -3.981733        -9.370920      0.000000      -0.002007
  454   0.044061        -3.982527        -9.369621      0.000000      -0.002002
  455   0.044050        -3.983337        -9.368339      0.000000      -0.001997
  456   0.044039        -3.984162        -9.367076      0.000000      -0.001991
  457   0.044028        -3.985003        -9.365830      0.000000      -0.001986
  458   0.044017        -3.985859        -9.364602      0.000000      -0.001981
  459   0.044007        -3.986731        -9.363391      0.000000      -0.001976
  460   0.043997        -3.987617        -9.362197      0.000000      -0.001970
  461   0.043986        -3.988518        -9.361019      0.000000      -0.001965
  462   0.043975        -3.989433        -9.359859      0.000000      -0.001960
  463   0.043964        -3.990363        -9.358715      0.000000      -0.001954
  464   0.043953        -3.991308        -9.357588      0.000000      -0.001949
  465   0.043942        -3.992266        -9.356476      0.000000      -0.001944
  466   0.043932        -3.993238        -9.355381      0.000000      -0.001938
  467   0.043922        -3.994225        -9.354301      0.000000      -0.001933
  468   0.043911        -3.995225        -9.353237      0.000000      -0.001928
  469   0.043901        -3.996238        -9.352189      0.000000      -0.001922
  470   0.043890        -3.997265        -9.351156      0.000000      -0.001917
  471   0.043880        -3.998305        -9.350137      0.000000      -0.001912
  472   0.043870        -3.999359        -9.349134      0.000000      -0.001906
  473   0.043860        -4.000425        -9.348146      0.000000      -0.001901
  474   0.043850        -4.001504        -9.347173      0.000000      -0.001895
  475   0.043840        -4.002596        -9.346214      0.000000      -0.001890
  476   0.043831        -4.003700        -9.345269      0.000000      -0.001884
  477   0.043820        -4.004817        -9.344339      0.000000      -0.001879
  478   0.043810        -4.005946        -9.343423      0.000000      -0.001873
  479   0.043800        -4.007087        -9.342520      0.000000      -0.001868

------------------------ Discrete Adjoint Summary -----------------------
Total Geometry Sensitivity (updated every 1000 iterations): 4.7237e-06
-------------------------------------------------------------------------

log10[Maximum residual]: -3.2284e+00.
Maximum residual point 7927, located at (4.5541e-02, 3.9418e-02).

 Iter    Time(s)     Res[Psi_Rho]      Res[Psi_nu] Sens_PressOut Sens_TotTempIn
  480   0.043790        -4.008241        -9.341632      0.000000      -0.001862
  481   0.043781        -4.009406        -9.340757      0.000000      -0.001857
  482   0.043777        -4.010583        -9.339896      0.000000      -0.001851
  483   0.043795        -4.011772        -9.339048      0.000000      -0.001846
  484   0.043787        -4.012973        -9.338214      0.000000      -0.001840
  485   0.043784        -4.014185        -9.337393      0.000000      -0.001835
  486   0.043787        -4.015408        -9.336585      0.000000      -0.001829
  487   0.043778        -4.016643        -9.335790      0.000000      -0.001824
  488   0.043769        -4.017889        -9.335007      0.000000      -0.001818
  489   0.043761        -4.019146        -9.334238      0.000000      -0.001813
  490   0.043753        -4.020415        -9.333481      0.000000      -0.001807
  491   0.043745        -4.021694        -9.332737      0.000000      -0.001802
  492   0.043737        -4.022984        -9.332005      0.000000      -0.001796
  493   0.043730        -4.024285        -9.331285      0.000000      -0.001790
  494   0.043723        -4.025596        -9.330578      0.000000      -0.001785
  495   0.043716        -4.026918        -9.329883      0.000000      -0.001779
  496   0.043708        -4.028251        -9.329200      0.000000      -0.001774
  497   0.043700        -4.029594        -9.328529      0.000000      -0.001768
  498   0.043692        -4.030948        -9.327869      0.000000      -0.001762
  499   0.043684        -4.032312        -9.327222      0.000000      -0.001757
  500   0.043679        -4.033686        -9.326586      0.000000      -0.001751
  501   0.043677        -4.035070        -9.325962      0.000000      -0.001745
  502   0.043670        -4.036465        -9.325349      0.000000      -0.001740
  503   0.043663        -4.037870        -9.324748      0.000000      -0.001734
  504   0.043655        -4.039284        -9.324158      0.000000      -0.001729
  505   0.043647        -4.040709        -9.323579      0.000000      -0.001723
  506   0.043643        -4.042143        -9.323012      0.000000      -0.001717
  507   0.043642        -4.043588        -9.322455      0.000000      -0.001712
  508   0.043635        -4.045042        -9.321910      0.000000      -0.001706
  509   0.043628        -4.046506        -9.321376      0.000000      -0.001700
  510   0.043623        -4.047980        -9.320852      0.000000      -0.001695
  511   0.043622        -4.049463        -9.320340      0.000000      -0.001689
  512   0.043619        -4.050956        -9.319838      0.000000      -0.001683
  513   0.043611        -4.052459        -9.319347      0.000000      -0.001678
  514   0.043626        -4.053971        -9.318867      0.000000      -0.001672
  515   0.043618        -4.055493        -9.318397      0.000000      -0.001666
  516   0.043616        -4.057024        -9.317937      0.000000      -0.001661
  517   0.043628        -4.058564        -9.317488      0.000000      -0.001655
  518   0.043623        -4.060114        -9.317050      0.000000      -0.001649
  519   0.043619        -4.061673        -9.316621      0.000000      -0.001644

------------------------ Discrete Adjoint Summary -----------------------
Total Geometry Sensitivity (updated every 1000 iterations): 4.7237e-06
-------------------------------------------------------------------------

log10[Maximum residual]: -3.2637e+00.
Maximum residual point 7927, located at (4.5541e-02, 3.9418e-02).

 Iter    Time(s)     Res[Psi_Rho]      Res[Psi_nu] Sens_PressOut Sens_TotTempIn
  520   0.043664        -4.063241        -9.316203      0.000000      -0.001638
  521   0.043691        -4.064819        -9.315795      0.000000      -0.001632
  522   0.043684        -4.066405        -9.315398      0.000000      -0.001627
  523   0.043677        -4.068001        -9.315010      0.000000      -0.001621
  524   0.043669        -4.069606        -9.314632      0.000000      -0.001615
  525   0.043662        -4.071220        -9.314264      0.000000      -0.001610
  526   0.043656        -4.072843        -9.313906      0.000000      -0.001604
  527   0.043648        -4.074474        -9.313558      0.000000      -0.001598
  528   0.043641        -4.076115        -9.313220      0.000000      -0.001593
  529   0.043634        -4.077765        -9.312891      0.000000      -0.001587
  530   0.043627        -4.079423        -9.312572      0.000000      -0.001582
  531   0.043620        -4.081090        -9.312263      0.000000      -0.001576
  532   0.043613        -4.082766        -9.311963      0.000000      -0.001570
  533   0.043609        -4.084451        -9.311673      0.000000      -0.001565
  534   0.043612        -4.086144        -9.311392      0.000000      -0.001559
  535   0.043610        -4.087845        -9.311120      0.000000      -0.001553
  536   0.043606        -4.089556        -9.310858      0.000000      -0.001548
  537   0.043606        -4.091274        -9.310605      0.000000      -0.001542
  538   0.043605        -4.093001        -9.310361      0.000000      -0.001537
  539   0.043602        -4.094736        -9.310127      0.000000      -0.001531
  540   0.043612        -4.096480        -9.309901      0.000000      -0.001525
  541   0.043617        -4.098232        -9.309685      0.000000      -0.001520
  542   0.043610        -4.099992        -9.309477      0.000000      -0.001514
  543   0.043603        -4.101760        -9.309279      0.000000      -0.001509
  544   0.043596        -4.103536        -9.309089      0.000000      -0.001503
  545   0.043589        -4.105320        -9.308908      0.000000      -0.001497
  546   0.043583        -4.107112        -9.308736      0.000000      -0.001492
  547   0.043578        -4.108912        -9.308572      0.000000      -0.001486
  548   0.043570        -4.110720        -9.308417      0.000000      -0.001481
  549   0.043562        -4.112536        -9.308271      0.000000      -0.001475
  550   0.043554        -4.114359        -9.308133      0.000000      -0.001470
  551   0.043548        -4.116189        -9.308004      0.000000      -0.001464
  552   0.043540        -4.118028        -9.307883      0.000000      -0.001459
  553   0.043531        -4.119873        -9.307770      0.000000      -0.001453
  554   0.043523        -4.121726        -9.307666      0.000000      -0.001448
  555   0.043515        -4.123587        -9.307570      0.000000      -0.001442
  556   0.043507        -4.125454        -9.307482      0.000000      -0.001437
  557   0.043519        -4.127329        -9.307402      0.000000      -0.001431
  558   0.043511        -4.129211        -9.307330      0.000000      -0.001426
  559   0.043504        -4.131100        -9.307267      0.000000      -0.001420

------------------------ Discrete Adjoint Summary -----------------------
Total Geometry Sensitivity (updated every 1000 iterations): 4.7237e-06
-------------------------------------------------------------------------

log10[Maximum residual]: -3.3438e+00.
Maximum residual point 7927, located at (4.5541e-02, 3.9418e-02).

 Iter    Time(s)     Res[Psi_Rho]      Res[Psi_nu] Sens_PressOut Sens_TotTempIn
  560   0.043496        -4.132995        -9.307211      0.000000      -0.001415
  561   0.043488        -4.134898        -9.307163      0.000000      -0.001409
  562   0.043480        -4.136807        -9.307123      0.000000      -0.001404
  563   0.043472        -4.138723        -9.307090      0.000000      -0.001399
  564   0.043464        -4.140645        -9.307066      0.000000      -0.001393
  565   0.043456        -4.142574        -9.307048      0.000000      -0.001388
  566   0.043449        -4.144510        -9.307039      0.000000      -0.001382
  567   0.043441        -4.146452        -9.307037      0.000000      -0.001377
  568   0.043433        -4.148400        -9.307042      0.000000      -0.001372
  569   0.043426        -4.150354        -9.307055      0.000000      -0.001366
  570   0.043418        -4.152314        -9.307075      0.000000      -0.001361
  571   0.043410        -4.154280        -9.307102      0.000000      -0.001356
  572   0.043403        -4.156252        -9.307136      0.000000      -0.001350
  573   0.043395        -4.158230        -9.307178      0.000000      -0.001345
  574   0.043388        -4.160214        -9.307226      0.000000      -0.001340
  575   0.043381        -4.162203        -9.307282      0.000000      -0.001335
  576   0.043374        -4.164197        -9.307344      0.000000      -0.001329
  577   0.043366        -4.166197        -9.307413      0.000000      -0.001324
  578   0.043358        -4.168203        -9.307489      0.000000      -0.001319
  579   0.043351        -4.170213        -9.307572      0.000000      -0.001314
  580   0.043346        -4.172229        -9.307661      0.000000      -0.001309
  581   0.043340        -4.174250        -9.307757      0.000000      -0.001303
  582   0.043358        -4.176275        -9.307859      0.000000      -0.001298
  583   0.043355        -4.178306        -9.307967      0.000000      -0.001293
  584   0.043354        -4.180341        -9.308082      0.000000      -0.001288
  585   0.043356        -4.182381        -9.308203      0.000000      -0.001283
  586   0.043350        -4.184425        -9.308331      0.000000      -0.001278
  587   0.043345        -4.186474        -9.308464      0.000000      -0.001273
  588   0.043339        -4.188527        -9.308603      0.000000      -0.001268
  589   0.043333        -4.190585        -9.308749      0.000000      -0.001263
  590   0.043327        -4.192646        -9.308900      0.000000      -0.001258
  591   0.043321        -4.194712        -9.309057      0.000000      -0.001252
  592   0.043316        -4.196781        -9.309219      0.000000      -0.001248
  593   0.043312        -4.198855        -9.309388      0.000000      -0.001243
  594   0.043306        -4.200932        -9.309562      0.000000      -0.001238
  595   0.043303        -4.203013        -9.309741      0.000000      -0.001233
  596   0.043297        -4.205097        -9.309926      0.000000      -0.001228
  597   0.043292        -4.207185        -9.310116      0.000000      -0.001223
  598   0.043286        -4.209276        -9.310311      0.000000      -0.001218
  599   0.043283        -4.211370        -9.310511      0.000000      -0.001213

------------------------ Discrete Adjoint Summary -----------------------
Total Geometry Sensitivity (updated every 1000 iterations): 4.7237e-06
-------------------------------------------------------------------------

log10[Maximum residual]: -3.4710e+00.
Maximum residual point 7923, located at (3.7771e-02, 3.9698e-02).

 Iter    Time(s)     Res[Psi_Rho]      Res[Psi_nu] Sens_PressOut Sens_TotTempIn
  600   0.043277        -4.213468        -9.310717      0.000000      -0.001208
  601   0.043272        -4.215568        -9.310928      0.000000      -0.001203
  602   0.043267        -4.217671        -9.311143      0.000000      -0.001199
  603   0.043265        -4.219778        -9.311363      0.000000      -0.001194
  604   0.043268        -4.221887        -9.311588      0.000000      -0.001189
  605   0.043269        -4.223998        -9.311818      0.000000      -0.001184
  606   0.043274        -4.226112        -9.312053      0.000000      -0.001179
  607   0.043269        -4.228229        -9.312291      0.000000      -0.001175
  608   0.043264        -4.230348        -9.312535      0.000000      -0.001170
  609   0.043261        -4.232469        -9.312782      0.000000      -0.001165
  610   0.043260        -4.234593        -9.313034      0.000000      -0.001161
  611   0.043259        -4.236718        -9.313290      0.000000      -0.001156
  612   0.043252        -4.238845        -9.313551      0.000000      -0.001151
  613   0.043265        -4.240974        -9.313815      0.000000      -0.001147
  614   0.043264        -4.243105        -9.314083      0.000000      -0.001142
  615   0.043260        -4.245238        -9.314355      0.000000      -0.001138
  616   0.043268        -4.247372        -9.314631      0.000000      -0.001133
  617   0.043265        -4.249508        -9.314910      0.000000      -0.001129
  618   0.043263        -4.251645        -9.315193      0.000000      -0.001124
  619   0.043316        -4.253783        -9.315480      0.000000      -0.001120
  620   0.043325        -4.255922        -9.315770      0.000000      -0.001115
  621   0.043319        -4.258063        -9.316063      0.000000      -0.001111
  622   0.043314        -4.260204        -9.316360      0.000000      -0.001106
  623   0.043308        -4.262346        -9.316660      0.000000      -0.001102
  624   0.043303        -4.264490        -9.316962      0.000000      -0.001097
  625   0.043299        -4.266633        -9.317268      0.000000      -0.001093
  626   0.043293        -4.268778        -9.317577      0.000000      -0.001089
  627   0.043288        -4.270923        -9.317889      0.000000      -0.001084
  628   0.043283        -4.273068        -9.318203      0.000000      -0.001080
  629   0.043278        -4.275214        -9.318520      0.000000      -0.001076
  630   0.043273        -4.277360        -9.318840      0.000000      -0.001071
  631   0.043267        -4.279506        -9.319162      0.000000      -0.001067
  632   0.043270        -4.281653        -9.319487      0.000000      -0.001063
  633   0.043269        -4.283799        -9.319813      0.000000      -0.001059
  634   0.043269        -4.285945        -9.320143      0.000000      -0.001054
  635   0.043266        -4.288091        -9.320474      0.000000      -0.001050
  636   0.043266        -4.290237        -9.320807      0.000000      -0.001046
  637   0.043266        -4.292382        -9.321143      0.000000      -0.001042
  638   0.043264        -4.294527        -9.321480      0.000000      -0.001038
  639   0.043278        -4.296671        -9.321819      0.000000      -0.001034

------------------------ Discrete Adjoint Summary -----------------------
Total Geometry Sensitivity (updated every 1000 iterations): 4.7237e-06
-------------------------------------------------------------------------

log10[Maximum residual]: -3.5210e+00.
Maximum residual point 10820, located at (4.5366e-02, 7.5451e-02).

 Iter    Time(s)     Res[Psi_Rho]      Res[Psi_nu] Sens_PressOut Sens_TotTempIn
  640   0.043278        -4.298815        -9.322160      0.000000      -0.001030
  641   0.043278        -4.300958        -9.322503      0.000000      -0.001026
  642   0.043272        -4.303100        -9.322834      0.000000      -0.001022
  643   0.043266        -4.305242        -9.323186      0.000000      -0.001018
  644   0.043260        -4.307382        -9.323537      0.000000      -0.001014
  645   0.043255        -4.309522        -9.323887      0.000000      -0.001010
  646   0.043250        -4.311660        -9.324238      0.000000      -0.001006
  647   0.043243        -4.313797        -9.324589      0.000000      -0.001002
  648   0.043236        -4.315933        -9.324942      0.000000      -0.000998
  649   0.043230        -4.318068        -9.325295      0.000000      -0.000994
  650   0.043224        -4.320201        -9.325649      0.000000      -0.000990
  651   0.043216        -4.322333        -9.326004      0.000000      -0.000986
  652   0.043209        -4.324464        -9.326359      0.000000      -0.000982
  653   0.043202        -4.326592        -9.326716      0.000000      -0.000979
  654   0.043195        -4.328719        -9.327073      0.000000      -0.000975
  655   0.043188        -4.330845        -9.327430      0.000000      -0.000971
  656   0.043181        -4.332968        -9.327789      0.000000      -0.000967
  657   0.043174        -4.335090        -9.328147      0.000000      -0.000964
  658   0.043168        -4.337209        -9.328506      0.000000      -0.000960
  659   0.043161        -4.339327        -9.328865      0.000000      -0.000956
  660   0.043153        -4.341442        -9.329225      0.000000      -0.000953
  661   0.043147        -4.343556        -9.329584      0.000000      -0.000949
  662   0.043139        -4.345667        -9.329944      0.000000      -0.000945
  663   0.043132        -4.347776        -9.330304      0.000000      -0.000942
  664   0.043125        -4.349882        -9.330664      0.000000      -0.000938
  665   0.043119        -4.351987        -9.331023      0.000000      -0.000935
  666   0.043112        -4.354088        -9.331382      0.000000      -0.000931
  667   0.043106        -4.356188        -9.331742      0.000000      -0.000927
  668   0.043099        -4.358284        -9.332100      0.000000      -0.000924
  669   0.043092        -4.360378        -9.332459      0.000000      -0.000920
  670   0.043086        -4.362470        -9.332817      0.000000      -0.000917
  671   0.043079        -4.364559        -9.333174      0.000000      -0.000914
  672   0.043072        -4.366645        -9.333531      0.000000      -0.000910
  673   0.043066        -4.368728        -9.333887      0.000000      -0.000907
  674   0.043060        -4.370808        -9.334242      0.000000      -0.000903
  675   0.043053        -4.372885        -9.334597      0.000000      -0.000900
  676   0.043047        -4.374960        -9.334951      0.000000      -0.000897
  677   0.043040        -4.377031        -9.335304      0.000000      -0.000893
  678   0.043033        -4.379099        -9.335656      0.000000      -0.000890
  679   0.043026        -4.381164        -9.336007      0.000000      -0.000887

------------------------ Discrete Adjoint Summary -----------------------
Total Geometry Sensitivity (updated every 1000 iterations): 4.7237e-06
-------------------------------------------------------------------------

log10[Maximum residual]: -3.5845e+00.
Maximum residual point 7942, located at (3.5231e-02, 8.1970e-02).

 Iter    Time(s)     Res[Psi_Rho]      Res[Psi_nu] Sens_PressOut Sens_TotTempIn
  680   0.043021        -4.383226        -9.336357      0.000000      -0.000883
  681   0.043022        -4.385285        -9.336706      0.000000      -0.000880
  682   0.043033        -4.387341        -9.337053      0.000000      -0.000877
  683   0.043029        -4.389393        -9.337400      0.000000      -0.000874
  684   0.043028        -4.391442        -9.337745      0.000000      -0.000870
  685   0.043030        -4.393488        -9.338089      0.000000      -0.000867
  686   0.043024        -4.395530        -9.338432      0.000000      -0.000864
  687   0.043019        -4.397569        -9.338773      0.000000      -0.000861
  688   0.043014        -4.399604        -9.339113      0.000000      -0.000858
  689   0.043008        -4.401636        -9.339451      0.000000      -0.000855
  690   0.043003        -4.403664        -9.339788      0.000000      -0.000851
  691   0.042998        -4.405689        -9.340123      0.000000      -0.000848
  692   0.042995        -4.407710        -9.340456      0.000000      -0.000845
  693   0.042989        -4.409728        -9.340788      0.000000      -0.000842
  694   0.042984        -4.411741        -9.341118      0.000000      -0.000839
[...]
10127   0.042057        -9.880750       -13.805480      0.000000       0.000023
10128   0.042057        -9.881327       -13.806133      0.000000       0.000023
10129   0.042057        -9.881904       -13.806787      0.000000       0.000023
10130   0.042057        -9.882481       -13.807440      0.000000       0.000023
10131   0.042056        -9.883059       -13.808094      0.000000       0.000023
10132   0.042057        -9.883636       -13.808747      0.000000       0.000023
10133   0.042056        -9.884213       -13.809401      0.000000       0.000023
10134   0.042056        -9.884790       -13.810054      0.000000       0.000023
10135   0.042056        -9.885368       -13.810708      0.000000       0.000023
10136   0.042056        -9.885945       -13.811361      0.000000       0.000023
10137   0.042056        -9.886522       -13.812014      0.000000       0.000023
10138   0.042056        -9.887100       -13.812668      0.000000       0.000023
10139   0.042056        -9.887677       -13.813321      0.000000       0.000023
10140   0.042056        -9.888254       -13.813974      0.000000       0.000023
10141   0.042056        -9.888832       -13.814628      0.000000       0.000023
10142   0.042057        -9.889409       -13.815281      0.000000       0.000023
10143   0.042057        -9.889987       -13.815934      0.000000       0.000023
10144   0.042057        -9.890564       -13.816588      0.000000       0.000023
10145   0.042058        -9.891142       -13.817241      0.000000       0.000023
10146   0.042061        -9.891719       -13.817894      0.000000       0.000023
10147   0.042061        -9.892297       -13.818547      0.000000       0.000023
10148   0.042060        -9.892874       -13.819201      0.000000       0.000023
10149   0.042060        -9.893452       -13.819854      0.000000       0.000023
10150   0.042060        -9.894029       -13.820507      0.000000       0.000023
10151   0.042060        -9.894607       -13.821160      0.000000       0.000023
10152   0.042059        -9.895184       -13.821813      0.000000       0.000023
10153   0.042059        -9.895762       -13.822467      0.000000       0.000023
10154   0.042059        -9.896340       -13.823120      0.000000       0.000023
10155   0.042059        -9.896917       -13.823773      0.000000       0.000023
10156   0.042058        -9.897495       -13.824426      0.000000       0.000023
10157   0.042058        -9.898073       -13.825079      0.000000       0.000023
10158   0.042058        -9.898650       -13.825732      0.000000       0.000023
10159   0.042058        -9.899228       -13.826385      0.000000       0.000023

------------------------ Discrete Adjoint Summary -----------------------
Total Geometry Sensitivity (updated every 1000 iterations): 5.0984e+00
-------------------------------------------------------------------------

log10[Maximum residual]: -9.0960e+00.
Maximum residual point 7952, located at (3.6488e-02, 9.5374e-02).

 Iter    Time(s)     Res[Psi_Rho]      Res[Psi_nu] Sens_PressOut Sens_TotTempIn
10160   0.042058        -9.899806       -13.827038      0.000000       0.000023
10161   0.042058        -9.900384       -13.827691      0.000000       0.000023
10162   0.042058        -9.900961       -13.828344      0.000000       0.000023
10163   0.042058        -9.901539       -13.828997      0.000000       0.000023
10164   0.042058        -9.902117       -13.829650      0.000000       0.000023
10165   0.042058        -9.902695       -13.830303      0.000000       0.000023
10166   0.042059        -9.903273       -13.830956      0.000000       0.000023
10167   0.042059        -9.903851       -13.831609      0.000000       0.000023
10168   0.042059        -9.904428       -13.832262      0.000000       0.000023
10169   0.042059        -9.905006       -13.832915      0.000000       0.000023
10170   0.042059        -9.905584       -13.833568      0.000000       0.000023
10171   0.042058        -9.906162       -13.834221      0.000000       0.000023
10172   0.042058        -9.906740       -13.834873      0.000000       0.000023
10173   0.042058        -9.907318       -13.835526      0.000000       0.000023
10174   0.042058        -9.907896       -13.836179      0.000000       0.000023
10175   0.042057        -9.908474       -13.836832      0.000000       0.000023
10176   0.042057        -9.909052       -13.837485      0.000000       0.000023
10177   0.042057        -9.909630       -13.838137      0.000000       0.000023
10178   0.042056        -9.910208       -13.838790      0.000000       0.000023
10179   0.042056        -9.910786       -13.839443      0.000000       0.000023
10180   0.042056        -9.911365       -13.840096      0.000000       0.000023
10181   0.042055        -9.911943       -13.840748      0.000000       0.000023
10182   0.042055        -9.912521       -13.841401      0.000000       0.000023
10183   0.042055        -9.913099       -13.842054      0.000000       0.000023
10184   0.042055        -9.913677       -13.842706      0.000000       0.000023
10185   0.042054        -9.914255       -13.843359      0.000000       0.000023
10186   0.042054        -9.914833       -13.844012      0.000000       0.000023
10187   0.042054        -9.915412       -13.844664      0.000000       0.000023
10188   0.042053        -9.915990       -13.845317      0.000000       0.000023
10189   0.042053        -9.916568       -13.845970      0.000000       0.000023
10190   0.042053        -9.917146       -13.846622      0.000000       0.000023
10191   0.042052        -9.917725       -13.847275      0.000000       0.000023
10192   0.042052        -9.918303       -13.847927      0.000000       0.000023
10193   0.042052        -9.918881       -13.848580      0.000000       0.000023
10194   0.042051        -9.919460       -13.849232      0.000000       0.000023
10195   0.042051        -9.920038       -13.849885      0.000000       0.000023
10196   0.042051        -9.920617       -13.850537      0.000000       0.000023
10197   0.042050        -9.921195       -13.851190      0.000000       0.000023
10198   0.042050        -9.921773       -13.851842      0.000000       0.000023
10199   0.042050        -9.922352       -13.852494      0.000000       0.000023

------------------------ Discrete Adjoint Summary -----------------------
Total Geometry Sensitivity (updated every 1000 iterations): 5.0984e+00
-------------------------------------------------------------------------

log10[Maximum residual]: -9.1192e+00.
Maximum residual point 7952, located at (3.6488e-02, 9.5374e-02).

 Iter    Time(s)     Res[Psi_Rho]      Res[Psi_nu] Sens_PressOut Sens_TotTempIn
10200   0.042049        -9.922930       -13.853147      0.000000       0.000023
10201   0.042049        -9.923509       -13.853799      0.000000       0.000023
10202   0.042049        -9.924087       -13.854452      0.000000       0.000023
10203   0.042048        -9.924666       -13.855104      0.000000       0.000023
10204   0.042048        -9.925244       -13.855756      0.000000       0.000023
10205   0.042048        -9.925823       -13.856409      0.000000       0.000023
10206   0.042048        -9.926401       -13.857061      0.000000       0.000023
10207   0.042047        -9.926980       -13.857713      0.000000       0.000023
10208   0.042047        -9.927559       -13.858366      0.000000       0.000023
10209   0.042047        -9.928137       -13.859018      0.000000       0.000023
10210   0.042046        -9.928716       -13.859670      0.000000       0.000023
10211   0.042046        -9.929294       -13.860322      0.000000       0.000023
10212   0.042047        -9.929873       -13.860974      0.000000       0.000023
10213   0.042047        -9.930452       -13.861627      0.000000       0.000023
10214   0.042047        -9.931030       -13.862279      0.000000       0.000023
10215   0.042047        -9.931609       -13.862931      0.000000       0.000023
10216   0.042047        -9.932188       -13.863583      0.000000       0.000023
10217   0.042047        -9.932767       -13.864235      0.000000       0.000023
10218   0.042046        -9.933345       -13.864887      0.000000       0.000023
10219   0.042046        -9.933924       -13.865539      0.000000       0.000023
10220   0.042046        -9.934503       -13.866192      0.000000       0.000023
10221   0.042046        -9.935082       -13.866844      0.000000       0.000023
10222   0.042046        -9.935661       -13.867496      0.000000       0.000023
10223   0.042045        -9.936240       -13.868148      0.000000       0.000023
10224   0.042045        -9.936818       -13.868800      0.000000       0.000023
10225   0.042045        -9.937397       -13.869452      0.000000       0.000023
10226   0.042045        -9.937976       -13.870104      0.000000       0.000023
10227   0.042044        -9.938555       -13.870756      0.000000       0.000023
10228   0.042044        -9.939134       -13.871407      0.000000       0.000023
10229   0.042044        -9.939713       -13.872059      0.000000       0.000023
10230   0.042044        -9.940292       -13.872711      0.000000       0.000023
10231   0.042044        -9.940871       -13.873363      0.000000       0.000023
10232   0.042043        -9.941450       -13.874015      0.000000       0.000023
10233   0.042043        -9.942029       -13.874667      0.000000       0.000023
10234   0.042043        -9.942608       -13.875319      0.000000       0.000023
10235   0.042043        -9.943187       -13.875971      0.000000       0.000023
10236   0.042043        -9.943766       -13.876622      0.000000       0.000023
10237   0.042043        -9.944346       -13.877274      0.000000       0.000023
10238   0.042043        -9.944925       -13.877926      0.000000       0.000023
10239   0.042042        -9.945504       -13.878578      0.000000       0.000023

------------------------ Discrete Adjoint Summary -----------------------
Total Geometry Sensitivity (updated every 1000 iterations): 5.0984e+00
-------------------------------------------------------------------------

log10[Maximum residual]: -9.1423e+00.
Maximum residual point 7952, located at (3.6488e-02, 9.5374e-02).

 Iter    Time(s)     Res[Psi_Rho]      Res[Psi_nu] Sens_PressOut Sens_TotTempIn
10240   0.042043        -9.946083       -13.879229      0.000000       0.000023
10241   0.042043        -9.946662       -13.879881      0.000000       0.000023
10242   0.042042        -9.947241       -13.880533      0.000000       0.000023
10243   0.042043        -9.947821       -13.881185      0.000000       0.000023
10244   0.042043        -9.948400       -13.881836      0.000000       0.000023
10245   0.042043        -9.948979       -13.882488      0.000000       0.000023
10246   0.042043        -9.949558       -13.883139      0.000000       0.000023
10247   0.042043        -9.950138       -13.883791      0.000000       0.000023
10248   0.042043        -9.950717       -13.884443      0.000000       0.000023
10249   0.042045        -9.951296       -13.885094      0.000000       0.000023
10250   0.042047        -9.951876       -13.885746      0.000000       0.000023
10251   0.042047        -9.952455       -13.886397      0.000000       0.000023
10252   0.042047        -9.953034       -13.887049      0.000000       0.000023
10253   0.042046        -9.953614       -13.887700      0.000000       0.000023
10254   0.042046        -9.954193       -13.888352      0.000000       0.000023
10255   0.042046        -9.954772       -13.889003      0.000000       0.000023
10256   0.042046        -9.955352       -13.889655      0.000000       0.000023
10257   0.042046        -9.955931       -13.890306      0.000000       0.000023
10258   0.042045        -9.956511       -13.890958      0.000000       0.000023
10259   0.042045        -9.957090       -13.891609      0.000000       0.000023
10260   0.042045        -9.957670       -13.892261      0.000000       0.000023
10261   0.042045        -9.958249       -13.892912      0.000000       0.000023
10262   0.042044        -9.958829       -13.893563      0.000000       0.000023
10263   0.042045        -9.959409       -13.894215      0.000000       0.000023
10264   0.042045        -9.959988       -13.894866      0.000000       0.000023
10265   0.042045        -9.960568       -13.895517      0.000000       0.000023
10266   0.042045        -9.961147       -13.896169      0.000000       0.000023
10267   0.042045        -9.961727       -13.896820      0.000000       0.000023
10268   0.042045        -9.962307       -13.897471      0.000000       0.000023
10269   0.042045        -9.962886       -13.898122      0.000000       0.000023
10270   0.042046        -9.963466       -13.898773      0.000000       0.000023
10271   0.042046        -9.964046       -13.899425      0.000000       0.000023
10272   0.042046        -9.964625       -13.900076      0.000000       0.000023
10273   0.042045        -9.965205       -13.900727      0.000000       0.000023
10274   0.042045        -9.965785       -13.901378      0.000000       0.000023
10275   0.042045        -9.966365       -13.902029      0.000000       0.000023
10276   0.042045        -9.966944       -13.902680      0.000000       0.000023
10277   0.042044        -9.967524       -13.903331      0.000000       0.000023
10278   0.042044        -9.968104       -13.903983      0.000000       0.000023
10279   0.042044        -9.968684       -13.904634      0.000000       0.000023

------------------------ Discrete Adjoint Summary -----------------------
Total Geometry Sensitivity (updated every 1000 iterations): 5.0984e+00
-------------------------------------------------------------------------

log10[Maximum residual]: -9.1655e+00.
Maximum residual point 7952, located at (3.6488e-02, 9.5374e-02).

 Iter    Time(s)     Res[Psi_Rho]      Res[Psi_nu] Sens_PressOut Sens_TotTempIn
10280   0.042044        -9.969264       -13.905285      0.000000       0.000023
10281   0.042043        -9.969844       -13.905936      0.000000       0.000023
10282   0.042043        -9.970424       -13.906587      0.000000       0.000023
10283   0.042043        -9.971003       -13.907238      0.000000       0.000023
10284   0.042042        -9.971583       -13.907889      0.000000       0.000023
10285   0.042042        -9.972163       -13.908540      0.000000       0.000023
10286   0.042042        -9.972743       -13.909190      0.000000       0.000023
10287   0.042041        -9.973323       -13.909841      0.000000       0.000023
10288   0.042041        -9.973903       -13.910492      0.000000       0.000023
10289   0.042041        -9.974483       -13.911143      0.000000       0.000023
10290   0.042040        -9.975063       -13.911794      0.000000       0.000023
10291   0.042040        -9.975643       -13.912445      0.000000       0.000023
10292   0.042040        -9.976224       -13.913096      0.000000       0.000023
10293   0.042039        -9.976804       -13.913746      0.000000       0.000023
10294   0.042039        -9.977384       -13.914397      0.000000       0.000023
10295   0.042039        -9.977964       -13.915048      0.000000       0.000023
10296   0.042039        -9.978544       -13.915699      0.000000       0.000023
10297   0.042038        -9.979124       -13.916350      0.000000       0.000023
10298   0.042038        -9.979704       -13.917000      0.000000       0.000023
10299   0.042038        -9.980285       -13.917651      0.000000       0.000023
10300   0.042037        -9.980865       -13.918302      0.000000       0.000023
10301   0.042037        -9.981445       -13.918952      0.000000       0.000023
10302   0.042037        -9.982025       -13.919603      0.000000       0.000023
10303   0.042036        -9.982605       -13.920254      0.000000       0.000023
10304   0.042036        -9.983186       -13.920904      0.000000       0.000023
10305   0.042036        -9.983766       -13.921555      0.000000       0.000023
10306   0.042035        -9.984346       -13.922205      0.000000       0.000023
10307   0.042035        -9.984927       -13.922856      0.000000       0.000023
10308   0.042035        -9.985507       -13.923506      0.000000       0.000023
10309   0.042034        -9.986087       -13.924157      0.000000       0.000023
10310   0.042034        -9.986668       -13.924807      0.000000       0.000023
10311   0.042034        -9.987248       -13.925458      0.000000       0.000023
10312   0.042034        -9.987829       -13.926108      0.000000       0.000023
10313   0.042033        -9.988409       -13.926759      0.000000       0.000023
10314   0.042033        -9.988990       -13.927409      0.000000       0.000023
10315   0.042033        -9.989570       -13.928060      0.000000       0.000023
10316   0.042034        -9.990150       -13.928710      0.000000       0.000023
10317   0.042034        -9.990731       -13.929360      0.000000       0.000023
10318   0.042034        -9.991311       -13.930011      0.000000       0.000023
10319   0.042034        -9.991892       -13.930661      0.000000       0.000023

------------------------ Discrete Adjoint Summary -----------------------
Total Geometry Sensitivity (updated every 1000 iterations): 5.0984e+00
-------------------------------------------------------------------------

log10[Maximum residual]: -9.1888e+00.
Maximum residual point 7952, located at (3.6488e-02, 9.5374e-02).

 Iter    Time(s)     Res[Psi_Rho]      Res[Psi_nu] Sens_PressOut Sens_TotTempIn
10320   0.042034        -9.992473       -13.931311      0.000000       0.000023
10321   0.042033        -9.993053       -13.931962      0.000000       0.000023
10322   0.042033        -9.993634       -13.932612      0.000000       0.000023
10323   0.042033        -9.994214       -13.933262      0.000000       0.000023
10324   0.042033        -9.994795       -13.933912      0.000000       0.000023
10325   0.042032        -9.995376       -13.934563      0.000000       0.000023
10326   0.042032        -9.995956       -13.935213      0.000000       0.000023
10327   0.042032        -9.996537       -13.935863      0.000000       0.000023
10328   0.042032        -9.997118       -13.936513      0.000000       0.000023
10329   0.042032        -9.997698       -13.937163      0.000000       0.000023
10330   0.042031        -9.998279       -13.937813      0.000000       0.000023
10331   0.042031        -9.998860       -13.938464      0.000000       0.000023
10332   0.042031        -9.999441       -13.939114      0.000000       0.000023
 Non-dim. translational velocity: (0, 0, 0).
 Non-dim. translational velocity: (0, -297.666, 0).
 Non-dim. translational velocity: (0, 0, 0).
 Non-dim. translational velocity: (0, -297.666, 0).
10333   0.042071       -10.000021       -13.939764      0.000000       0.000023

-------------------------- File Output Summary --------------------------
Writing comma-separated values (CSV) surface files.
Loading solution output data locally on each rank.
Sorting output data across all ranks.
Writing ASCII SU2 native restart file.

Writing comma-separated values (CSV) surface files.
Loading solution output data locally on each rank.
Sorting output data across all ranks.
Writing ASCII SU2 native restart file.
-------------------------------------------------------------------------


------------------------- Solver Postprocessing -------------------------
Deleted CNumerics container.
Deleted CIntegration container.
Deleted CSolver container.
Deleted CIteration container.
Deleted CInterpolator container.
Deleted CTransfer container.
Deleted CGeometry container.
Deleted CFreeFormDefBox class.
Deleted CSurfaceMovement class.
Deleted CVolumetricMovement class.
Deleted CConfig container.
Deleted COutput class.
-------------------------------------------------------------------------

Completed in 435.209040 seconds on 12 cores.

------------------------- Exit Success (SU2_CFD) ------------------------

